data_Li-ABW
_cell_length_a         10.313
_cell_length_b         8.194
_cell_length_c         4.993
_cell_angle_alpha     90
_cell_angle_beta      90
_cell_angle_gamma     90


# setting 
_symmetry_space_group_name_H-M 'Pna21'


loop_
_symmetry_equiv_pos_as_xyz
'x,y,z'
'-x,-y,z+1/2'
'-x+1/2,y+1/2,z+1/2'
'x+1/2,-y+1/2,z'


loop_
_atom_site_label
_atom_site_type_symbol
_atom_site_fract_x
_atom_site_fract_y
_atom_site_fract_z
_atom_site_occupancy
_atom_site_U_iso_or_equiv
Li Li 0.1862 0.6849 0.2520 1.0 0.0199
Si Si 0.3544 0.3757 0.2492 1.0 0.0056
Al Al 0.1593 0.0810 0.2500 1.0 0.0051
O1 O 0.0061 0.1584 0.1970 1.0 0.0095
O2 O 0.2736 0.2198 0.1391 1.0 0.0123
O3 O 0.1912 0.0399 0.5907 1.0 0.0096
O4 O 0.1804 -0.1008 0.0689 1.0 0.0086
H1 H 0.5497 0.1798 0.8651 1.0 0.0507
H2 H 0.4965 0.0587 0.5773 1.0 0.0532
O5 O 0.4891 0.0903 -0.2395 1.0 0.0371




