data_ACP-1
_cell_length_a        10.240
_cell_length_b        10.240
_cell_length_c        9.652
_cell_angle_alpha    90.0
_cell_angle_beta     90.0
_cell_angle_gamma    90.0


# setting 
_symmetry_space_group_name_H-M 'I-42m'


loop_
_symmetry_equiv_pos_as_xyz
'x,y,z'
'y,-x,-z'
'-y,x,-z'
'x,-y,-z'
'-x,y,-z'
'-x,-y,z'
'-y,-x,z'
'y,x,z'
'x+1/2,y+1/2,z+1/2'
'y+1/2,-x+1/2,-z+1/2'
'-y+1/2,x+1/2,-z+1/2'
'x+1/2,-y+1/2,-z+1/2'
'-x+1/2,y+1/2,-z+1/2'
'-x+1/2,-y+1/2,z+1/2'
'-y+1/2,-x+1/2,z+1/2'
'y+1/2,x+1/2,z+1/2'


loop_
_atom_site_label
_atom_site_type_symbol
_atom_site_fract_x
_atom_site_fract_y
_atom_site_fract_z
_atom_site_occupancy
_atom_site_U_iso_or_equiv
Co1 Co 0.6332 0.3668 0.1316 0.89 0.0480
Al1 Al 0.6332 0.3668 0.1316 0.11 0.0480
P1 P 0.6647 0.3353 0.8092 1.0 0.0550
O1 O 0.6999 0.3001 0.9553 1.0 0.0680
O2 O 0.4818 0.3036 0.2179 1.0 0.0760
O3 O 0.7417 0.2583 0.7049 1.0 0.1418
N1 N 0.5 0.1847 0.5 1.0 0.0510
C1 C 0.5017 0.0444 0.568 0.5 0.0380
O10 O 0.5 0.5 0.0 0.5 0.0610
O20 O 0.5 0.5 0.5 0.5 0.1060




