data_Di-isopropylamine_MnAPO-11
_cell_length_a         13.472
_cell_length_b         18.712
_cell_length_c         8.4431
_cell_angle_alpha     90
_cell_angle_beta      90
_cell_angle_gamma     90


# setting 
# _symmetry_space_group_name_H-M 'Ibm2'


loop_
_symmetry_equiv_pos_as_xyz
'x,y,z'
'-x,-y,z'
'-x,y+1/2,z'
'x,-y+1/2,z'
'x+1/2,y+1/2,z+1/2'
'-x+1/2,-y+1/2,z+1/2'
'-x+1/2,y+1,z+1/2'
'x+1/2,-y+1,z+1/2'


loop_
_atom_site_label
_atom_site_type_sumbol
_atom_site_fract_x
_atom_site_fract_y
_atom_site_fract_z
_atom_site_occupancy
_atom_site_U_iso_or_equiv
AL1 Al 0.1390 0.0331 -0.203 1.034 0.0450
AL2 Al 0.9501 0.1060 0.294 1.028 0.0450
AL3 Al 0.8565 0.250 -0.208 1.010 0.0370
P1 P 0.1464 0.0365 0.170 0.913 0.0421
P2 P 0.9515 0.10846 -0.334 0.912 0.0383
P3 P 0.8621 0.250 0.163 0.904 0.0337
O1 O 0.1430 0.0364 0.000 1.0 0.1190
O2 O 0.9515 0.1120 0.491 1.0 0.1290
O3 O 0.8542 0.250 0.001 1.0 0.1320
O4 O 0.2455 0.0612 0.228 1.0 0.0850
O5 O 0.0690 0.0874 0.234 1.0 0.0840
O51 O 0.0564 0.0974 -0.277 1.0 0.0860
O6 O 0.1250 0.9611 0.232 1.0 0.0900
O61 O 0.1158 0.9498 -0.276 1.0 0.1000
O7 O 0.9175 0.1863 0.221 1.0 0.1110
O71 O 0.9169 0.1786 -0.267 1.0 0.1130
O8 O 0.7620 0.250 0.227 1.0 0.1210
C1 C 0.250 0.250 0.073 0.646 0.2700
C2 C 0.246 0.250 0.346 0.646 0.2700
C3 C 0.3449 0.250 0.457 1.292 0.1740
C4 C 0.161 0.250 0.448 1.292 0.2200
N1 N 0.301 0.206 0.242 0.323 0.2200




