data_AlPO-11_Calcined
_cell_length_a         13.5336
_cell_length_b         18.4821
_cell_length_c         8.3703
_cell_angle_alpha     90
_cell_angle_beta      90
_cell_angle_gamma     90


# setting 
# _symmetry_space_group_name_H-M 'Ibm2'


loop_
_symmetry_equiv_pos_as_xyz
'x,y,z'
'-x,-y,z'
'-x,y+1/2,z'
'x,-y+1/2,z'
'x+1/2,y+1/2,z+1/2'
'-x+1/2,-y+1/2,z+1/2'
'-x+1/2,y+1,z+1/2'
'x+1/2,-y+1,z+1/2'


loop_
_atom_site_label
_atom_site_type_sumbol
_atom_site_fract_x
_atom_site_fract_y
_atom_site_fract_z
_atom_site_occupancy
_atom_site_U_iso_or_equiv
AL1 Al 0.134 0.035 -0.199 1.0 0.0350
AL2 Al 0.949 0.102 0.317 1.0 0.0448
AL3 Al 0.850 0.250 -0.185 1.0 0.0239
P1 P 0.143 0.025 0.182 1.0 0.0350
P2 P 0.953 0.104 -0.306 1.0 0.0448
P3 P 0.857 0.250 0.185 1.0 0.0239
O1 O 0.143 0.039 0.000 1.0 0.1539
O2 O 0.945 0.105 0.517 1.0 0.0771
O3 O 0.860 0.250 0.024 1.0 0.1231
O4 O 0.242 0.068 0.243 1.0 0.0638
O5 O 0.068 0.088 0.252 1.0 0.0680
O51 O 0.057 0.091 -0.257 1.0 0.0680
O6 O 0.118 0.955 0.232 1.0 0.1079
O61 O 0.125 0.954 -0.264 1.0 0.1079
O7 O 0.913 0.179 0.232 1.0 0.1109
O71 O 0.909 0.177 -0.263 1.0 0.1109
O8 O 0.762 0.250 0.234 1.0 0.0889




