data_AlPO-EN3
_cell_length_a        10.321
_cell_length_b        13.631
_cell_length_c        17.454
_cell_angle_alpha    90
_cell_angle_beta     90
_cell_angle_gamma    90


# setting 
# _symmetry_space_group_name_H-M 'P212121'


loop_
_symmetry_equiv_pos_as_xyz
'x,y,z'
'x+1/2,-y+1/2,-z'
'-x,y+1/2,-z+1/2'
'-x+1/2,-y,z+1/2'


loop_
_atom_site_label
_atom_site_type_sumbol
_atom_site_fract_x
_atom_site_fract_y
_atom_site_fract_z
_atom_site_occupancy
_atom_site_U_iso_or_equiv
P1 P 0.8718 0.0088 0.0463 1.0 0.0133
P2 P 0.1248 0.3179 0.1721 1.0 0.0133
P3 P 0.1135 0.8170 0.8271 1.0 0.0133
P4 P 0.8810 0.4973 0.9579 1.0 0.0133
P5 P 0.1237 0.7200 0.0851 1.0 0.0133
P6 P 0.1289 0.2104 0.9227 1.0 0.0133
Al1 Al 0.1124 0.9905 0.9460 1.0 0.0155
Al2 Al 0.8750 0.8123 0.1446 1.0 0.0155
Al3 Al 0.1226 0.4884 0.0590 1.0 0.0155
Al4 Al 0.8804 0.3091 0.8580 1.0 0.0155
Al5 Al 0.9268 0.7311 0.9514 1.0 0.0155
Al6 Al 0.9210 0.2354 0.0511 1.0 0.0155
O1 O 0.8514 0.2491 0.9560 1.0 0.0105
O2 O 0.8494 0.7656 0.0421 1.0 0.0105
O3 O 0.9414 0.1067 0.0646 1.0 0.0105
O4 O 0.9102 0.6021 0.9286 1.0 0.0105
O5 O 0.8696 0.4348 0.8842 1.0 0.0105
O6 O 0.8749 0.9373 0.1152 1.0 0.0105
O7 O 0.1273 0.6078 0.0976 1.0 0.0105
O8 O 0.0863 0.1051 0.9013 1.0 0.0105
O9 O 0.0864 0.2483 0.0029 1.0 0.0105
O10 O 0.9660 0.4661 0.0268 1.0 0.0105
O11 O 0.9946 0.2866 0.1359 1.0 0.0105
O12 O 0.9674 0.9566 0.9900 1.0 0.0105
O13 O 0.0440 0.7717 0.1486 1.0 0.0105
O14 O 0.2307 0.2390 0.1688 1.0 0.0105
O15 O 0.1777 0.4108 0.1322 1.0 0.0105
O16 O 0.9831 0.7730 0.8558 1.0 0.0105
O17 O 0.0876 0.7357 0.9998 1.0 0.0105
O18 O 0.0946 0.3485 0.2546 1.0 0.0105
O19 O 0.7355 0.0268 0.0144 1.0 0.0105
O20 O 0.2163 0.7365 0.8383 1.0 0.0105
O21 O 0.9102 0.3467 0.7561 1.0 0.0105
O22 O 0.2701 0.7347 0.0944 1.0 0.0105
O23 O 0.7596 0.2456 0.1026 1.0 0.0105
O24 O 0.0393 0.2626 0.8658 1.0 0.0105
O25 O 0.8490 0.4091 0.6274 1.0 0.0105
O26 O 0.7580 0.4987 0.4900 1.0 0.0105
H2O1 O2-(H2O) 0.7788 0.3736 0.2476 1.0 0.0600
H2O2 O2-(H2O) 0.7142 0.1702 0.2521 1.0 0.0900
N1 N 0.0457 0.5689 0.2542 1.0 0.0500
C1 C 0.9121 0.5366 0.2338 1.0 0.0500
N2 N 0.4381 0.4467 0.2655 1.0 0.0500
C2 C 0.3506 0.5317 0.2604 1.0 0.0500




