data_AlPO-41_Calcined
_cell_length_a         9.7179
_cell_length_b         13.7915
_cell_length_c         8.3591
_cell_angle_alpha     90
_cell_angle_beta      90
_cell_angle_gamma     110.6


# setting 
_symmetry_space_group_name_H-M 'P1121'


loop_
_symmetry_equiv_pos_as_xyz
'x,y,z'
'-x,-y,z+1/2'


loop_
_atom_site_label
_atom_site_type_symbol
_atom_site_fract_x
_atom_site_fract_y
_atom_site_fract_z
_atom_site_occupancy
_atom_site_U_iso_or_equiv
Al1 Al 0.562 0.122 0.638 1.0 0.0250
Al2 Al 0.852 0.278 0.124 1.0 0.0250
Al3 Al 0.725 0.443 0.627 1.0 0.0250
Al4 Al 0.826 0.666 0.142 1.0 0.0250
Al5 Al 0.580 0.743 0.672 1.0 0.0250
P1 P 0.548 0.096 0.022 1.0 0.0250
P2 P 0.859 0.284 0.499 1.0 0.0250
P3 P 0.713 0.440 0.008 1.0 0.0250
P4 P 0.828 0.671 0.518 1.0 0.0250
P5 P 0.561 0.716 0.016 1.0 0.0250
O1 O 0.449 0.138 0.146 1.0 0.0380
O2 O 0.543 0.127 0.839 1.0 0.0380
O3 O 0.708 0.156 0.042 1.0 0.0380
O4 O 0.518 0.976 0.048 1.0 0.0380
O5 O 0.835 0.385 0.548 1.0 0.0380
O6 O -0.006 0.294 0.559 1.0 0.0380
O7 O 0.743 0.158 0.549 1.0 0.0380
O8 O 0.855 0.258 0.313 1.0 0.0380
O9 O 0.825 0.393 0.057 1.0 0.0380
O10 O 0.752 0.551 0.110 1.0 0.0380
O11 O 0.545 0.342 0.019 1.0 0.0380
O12 O 0.751 0.448 0.827 1.0 0.0380
O13 O 0.754 0.745 0.620 1.0 0.0380
O14 O 0.775 0.554 0.572 1.0 0.0380
O15 O 0.801 0.683 0.327 1.0 0.0380
O16 O -0.022 0.730 0.555 1.0 0.0380
O17 O 0.744 0.742 0.061 1.0 0.0380
O18 O 0.534 0.679 0.834 1.0 0.0380
O19 O 0.546 0.806 0.089 1.0 0.0380
O20 O 0.464 0.605 0.089 1.0 0.0380




