data_Tetrapropylammonium_SAPO-40
_cell_length_a         21.9443
_cell_length_b         13.6911
_cell_length_c         14.2486
_cell_angle_alpha     90
_cell_angle_beta      90
_cell_angle_gamma     90


# setting 
_symmetry_space_group_name_H-M 'Pccn'


loop_
_symmetry_equiv_pos_as_xyz
'x,y,z'
'x+1/2,-y,-z+1/2'
'-x,y+1/2,-z+1/2'
'-x+1/2,-y+1/2,z'
'-x,-y,-z'
'-x-1/2,y,z-1/2'
'x,-y-1/2,z-1/2'
'x-1/2,y-1/2,-z'


loop_
_atom_site_label
_atom_site_type_symbol
_atom_site_fract_x
_atom_site_fract_y
_atom_site_fract_z
_atom_site_occupancy
_atom_site_U_iso_or_equiv
Al1 Al 0.0860 0.1417 0.2174 1.0 0.0130
Al2 Al 0.1778 0.3624 0.0553 1.0 0.0130
Al3 Al -0.0119 0.3639 0.0615 1.0 0.0130
Al4 Al 0.0833 0.0482 -0.0764 1.0 0.0130
P1 P 0.0858 0.3652 0.2198 1.0 0.0130
P2 P 0.1804 0.1295 0.0587 1.0 0.0130
P3 P -0.0125 0.1420 0.0587 1.0 0.0130
P4 P 0.0836 0.4489 -0.0808 1.0 0.0130
O1 O 0.0954 0.2605 0.2514 1.0 0.0100
O2 O 0.1471 0.1050 0.1506 1.0 0.0100
O3 O 0.0207 0.1285 0.1529 1.0 0.0100
O4 O 0.0812 0.0682 0.3134 1.0 0.0100
O5 O 0.1372 0.3945 0.1554 1.0 0.0100
O6 O 0.0265 0.3770 0.1677 1.0 0.0100
O7 O 0.0857 0.4322 0.3036 1.0 0.0100
O8 O 0.1751 0.2388 0.0401 1.0 0.0100
O9 O 0.2525 0.4007 0.0687 1.0 0.0100
O10 O 0.1454 0.4190 -0.0410 1.0 0.0100
O11 O 0.1521 0.0719 -0.0229 1.0 0.0100
O12 O -0.0369 0.2460 0.0526 1.0 0.0100
O13 O 0.0341 0.3867 -0.0342 1.0 0.0100
O14 O -0.0741 0.4414 0.0607 1.0 0.0100
O15 O 0.0297 0.1238 -0.0260 1.0 0.0100
O16 O -0.0659 0.0720 0.0550 1.0 0.0100
N N 0.25 -0.25 -0.0080 1.0 0.0700
C1 C 0.1994 -0.2871 0.0541 1.0 0.0700
C2 C 0.1726 -0.2012 0.1130 1.0 0.0700
C3 C 0.1186 -0.2388 0.1727 1.0 0.0700
C4 C 0.2243 -0.1690 -0.0669 1.0 0.0700
C5 C 0.2730 -0.1304 -0.1357 1.0 0.0700
C6 C 0.2487 -0.0377 -0.1838 1.0 0.0700
H11 H 0.1665 -0.3160 0.0142 1.0 0.0600
H12 H 0.2158 -0.3382 0.0972 1.0 0.0600
H21 H 0.1580 -0.1485 0.0698 1.0 0.0600
H22 H 0.2049 -0.1744 0.1552 1.0 0.0600
H31 H 0.1332 -0.2913 0.2160 1.0 0.0600
H32 H 0.0863 -0.2656 0.1304 1.0 0.0600
H33 H 0.1014 -0.1836 0.2103 1.0 0.0600
H41 H 0.2107 -0.1145 -0.0250 1.0 0.0600
H42 H 0.1886 -0.1940 -0.1032 1.0 0.0600
H51 H 0.3111 -0.1145 -0.1004 1.0 0.0600
H52 H 0.2819 -0.1812 -0.1841 1.0 0.0600
H61 H 0.2307 0.0069 -0.1353 1.0 0.0600
H62 H 0.2165 -0.0559 -0.2303 1.0 0.0600
H63 H 0.2828 -0.0035 -0.2167 1.0 0.0600




