data_Di-n-propylamine_MAPSO-46
_cell_length_a         13.2251
_cell_length_b         13.2251
_cell_length_c         26.8922
_cell_angle_alpha     90
_cell_angle_beta      90
_cell_angle_gamma     120


# setting 
_symmetry_space_group_name_H-M 'P3c1'


loop_
_symmetry_equiv_pos_as_xyz
'x,y,z'
'-y,x-y,z'
'-x+y,-x,z'
'-x+y,y,z+1/2'
'x,x-y,z+1/2'
'-y,-x,z+1/2'


loop_
_atom_site_label
_atom_site_type_symbol
_atom_site_fract_x
_atom_site_fract_y
_atom_site_fract_z
_atom_site_occupancy
_atom_site_U_iso_or_equiv
AL1 Al 0.00000 0.00000 0.06457 1.0 0.0196
AL2 Al 0.46967 0.31584 0.13168 1.0 0.0323
AL3 Al 0.19875 0.96524 0.18925 1.0 0.0132
AL4 Al 0.46726 0.11576 0.30775 1.0 0.0180
AL5 Al 0.19352 0.17290 0.36246 1.0 0.0185
AL6 Al 0.66667 0.33333 0.43950 1.0 0.0176
P1 P 0.66667 0.33333 0.06039 1.0 0.0155
P2 P 0.19862 0.18082 0.13165 1.0 0.0205
P3 P 0.46965 0.10767 0.19050 1.0 0.0129
P4 P 0.20093 0.96592 0.30722 1.0 0.0219
P5 P 0.46960 0.31962 0.36555 1.0 0.0147
P6 P 0.00000 0.00000 0.43771 1.0 0.0203
O12 O 0.9846 0.1174 0.5852 1.0 0.0222
O16 O 0.0000 0.0000 0.9957 1.0 0.0315
O21 O 0.6875 0.2336 0.0819 1.0 0.0172
O22 O 0.7350 0.0649 0.1160 1.0 0.0129
O231 O 0.9192 0.4727 0.1661 1.0 0.0290
O23 O 0.7826 0.2713 0.1759 1.0 0.0242
O32 O 0.1515 0.2587 0.1616 1.0 0.0336
O321 O 0.1910 0.0927 0.1748 1.0 0.0248
O33 O 0.3389 0.9936 0.1796 1.0 0.0327
O34 O 0.1638 0.2199 0.7555 1.0 0.0407
O43 O 0.8976 0.5052 0.7477 1.0 0.0220
O44 O 0.3218 0.0036 0.3158 1.0 0.0247
O45 O 0.5189 0.4365 0.3483 1.0 0.0146
O451 O 0.4884 0.2442 0.3316 1.0 0.0361
O54 O 0.1405 0.2616 0.3398 1.0 0.0223
O541 O 0.1867 0.0777 0.3187 1.0 0.0290
O55 O 0.7279 0.0750 0.3741 1.0 0.0265
O56 O 0.9997 0.8889 0.4222 1.0 0.0337
O61 O 0.6666 0.3333 0.0081 1.0 0.0361
O65 O 0.7979 0.4676 0.4151 1.0 0.0322
C1 C 0.2968 0.1621 0.5117 1.0 0.0507
C11 C 0.0527 0.3242 0.4726 1.0 0.0507
C21 C 0.3242 0.4316 0.9472 1.0 0.0507
C2 C 0.9726 0.7011 0.5117 1.0 0.0507
N1 N 0.3242 0.0800 0.4863 1.0 0.0507




