data_AlPO-52_Calcined_Rehydrated
_cell_length_a         13.715
_cell_length_b         13.715
_cell_length_c         29.676
_cell_angle_alpha     90
_cell_angle_beta      90
_cell_angle_gamma     120


# setting 
# _symmetry_space_group_name_H-M 'P-31c'


loop_
_symmetry_equiv_pos_as_xyz
'x,y,z'
'-y,x-y,z'
'-x+y,-x,z'
'-y,-x,-z+1/2'
'-x+y,y,-z+1/2'
'x,x-y,-z+1/2'
'-x,-y,-z'
'y,-x+y,-z'
'x-y,x,-z'
'y,x,z-1/2'
'x-y,-y,z-1/2'
'-x,-x+y,z-1/2'


loop_
_atom_site_label
_atom_site_type_sumbol
_atom_site_fract_x
_atom_site_fract_y
_atom_site_fract_z
_atom_site_occupancy
_atom_site_U_iso_or_equiv
Al1 Al 0.231 0.000 0.198 1.0 0.0250
Al2 Al 0.341 0.445 0.469 1.0 0.0250
Al3 Al 0.435 0.326 0.635 1.0 0.0250
P1 P 0.225 0.223 0.202 1.0 0.0250
P2 P 0.339 0.448 0.368 1.0 0.0250
P3 P 0.435 0.329 0.534 1.0 0.0250
O1 O 0.267 0.007 0.253 1.0 0.0250
O2 O 0.234 0.125 0.182 1.0 0.0250
O3 O 0.097 -0.103 0.195 1.0 0.0250
O4 O 0.317 -0.026 0.163 1.0 0.0250
O5 O 0.344 0.413 0.414 1.0 0.0250
O6 O 0.362 0.354 0.503 1.0 0.0250
O7 O 0.445 0.581 0.477 1.0 0.0250
O8 O 0.223 0.453 0.487 1.0 0.0250
O9 O 0.302 0.323 0.170 1.0 0.0250
O10 O 0.472 0.224 0.648 1.0 0.0250
O11 O 0.550 0.452 0.651 1.0 0.0250
O12 O 0.394 0.318 0.580 1.0 0.0250




