data_SAPO-56
_cell_length_a         13.7617
_cell_length_b         13.7617
_cell_length_c         19.949
_cell_angle_alpha     90
_cell_angle_beta      90
_cell_angle_gamma     120


# setting 
_symmetry_space_group_name_H-M 'P-31c'


loop_
_symmetry_equiv_pos_as_xyz
'x,y,z'
'-y,x-y,z'
'-x+y,-x,z'
'-y,-x,-z+1/2'
'-x+y,y,-z+1/2'
'x,x-y,-z+1/2'
'-x,-y,-z'
'y,-x+y,-z'
'x-y,x,-z'
'y,x,z-1/2'
'x-y,-y,z-1/2'
'-x,-x+y,z-1/2'


loop_
_atom_site_label
_atom_site_type_symbol
_atom_site_fract_x
_atom_site_fract_y
_atom_site_fract_z
_atom_site_occupancy
_atom_site_U_iso_or_equiv
AL1 Al 0.001 0.225 0.077 1.0 0.0150
AL2 Al 0.338 0.439 0.173 1.0 0.0150
P1 P 0.107 0.441 0.179 1.0 0.0180
P2 P 0.231 0.229 0.079 1.0 0.0180
O1 O -0.126 0.112 0.104 1.0 0.0250
O2 O 0.105 0.189 0.093 1.0 0.0250
O3 O 0.024 0.348 0.119 1.0 0.0250
O4 O 0.013 0.277 -0.006 1.0 0.0250
O5 O 0.231 0.469 0.159 1.0 0.0250
O6 O 0.095 0.54 0.143 1.0 0.0250
O7 O 0.073 0.4 0.242 1.0 0.0250
O8 O 0.319 0.323 0.125 1.0 0.0250




