data_Di-n-propylamine_CoAPO-50
_cell_length_a         12.7468
_cell_length_b         12.7468
_cell_length_c         9.0153
_cell_angle_alpha     90
_cell_angle_beta      90
_cell_angle_gamma     120


# setting 
# _symmetry_space_group_name_H-M 'P-3'


loop_
_symmetry_equiv_pos_as_xyz
'x,y,z'
'-y,x-y,z'
'-x+y,-x,z'
'-x,-y,-z'
'y,-x+y,-z'
'x-y,x,-z'


loop_
_atom_site_label
_atom_site_type_sumbol
_atom_site_fract_x
_atom_site_fract_y
_atom_site_fract_z
_atom_site_occupancy
_atom_site_U_iso_or_equiv
AL2 Al 0.85585 0.32535 0.40999 1.0 0.0011
CO1 Co 0.33333 0.66667 0.18423 1.0 0.0030
P1 P 0.66667 0.33333 0.19314 1.0 0.0029
P2 P 0.32138 0.86415 0.38454 1.0 0.0029
O31 O 0.85934 0.44164 0.52440 1.0 0.0037
O32 O 0.39760 0.20587 0.52481 1.0 0.0049
O11 O 0.54705 0.23176 0.25047 1.0 0.0057
O12 O 0.20298 0.50794 0.24269 1.0 0.0046
O14 O 0.33333 0.66667 -0.02687 1.0 0.0046
O2 O 0.35660 0.99417 0.35229 1.0 0.0056
C1 C 0.40093 0.40351 0.07477 1.0 0.1127
C11 C 0.21931 0.21598 0.20291 1.0 0.1270
C2 C 0.46509 0.00622 0.04137 1.0 0.1825
C21 C 0.34138 0.32934 0.23073 1.0 0.2225
N1 N 0.28549 0.01616 0.90866 1.0 0.2590




