data_Analcime
_cell_length_a         13.73
_cell_length_b         13.73
_cell_length_c         13.73
_cell_angle_alpha     90
_cell_angle_beta      90
_cell_angle_gamma     90


# setting 
_symmetry_space_group_name_H-M 'Ia-3d'


loop_
_symmetry_equiv_pos_as_xyz
'x,y,z'
'x+1/4,-z+1/4,y+3/4'
'x+1/4,z+3/4,-y+3/4'
'z+1/4,y+3/4,-x+3/4'
'-z+1/4,y+3/4,x+1/4'
'-y+1/4,x+3/4,z+1/4'
'y+1/4,-x+1/4,z+3/4'
'z,x,y'
'y,z,x'
'-y,-z+1/2,x'
'z,-x,-y+1/2'
'-y+1/2,z,-x'
'-z,-x+1/2,y'
'-z+1/2,x,-y'
'y,-z,-x+1/2'
'x,-y,-z+1/2'
'-x+1/2,y,-z'
'-x,-y+1/2,z'
'y+1/4,x+3/4,-z+3/4'
'-y+1/4,-x+1/4,-z+1/4'
'z+1/4,-y+1/4,x+3/4'
'-z+1/4,-y+1/4,-x+1/4'
'-x+1/4,z+3/4,y+1/4'
'-x+1/4,-z+1/4,-y+1/4'
'-x,-y,-z'
'-x-1/4,z-1/4,-y-3/4'
'-x-1/4,-z-3/4,y-3/4'
'-z-1/4,-y-3/4,x-3/4'
'z-1/4,-y-3/4,-x-1/4'
'y-1/4,-x-3/4,-z-1/4'
'-y-1/4,x-1/4,-z-3/4'
'-z,-x,-y'
'-y,-z,-x'
'y,z-1/2,-x'
'-z,x,y-1/2'
'y-1/2,-z,x'
'z,x-1/2,-y'
'z-1/2,-x,y'
'-y,z,x-1/2'
'-x,y,z-1/2'
'x-1/2,-y,z'
'x,y-1/2,-z'
'-y-1/4,-x-3/4,z-3/4'
'y-1/4,x-1/4,z-1/4'
'-z-1/4,y-1/4,-x-3/4'
'z-1/4,y-1/4,x-1/4'
'x-1/4,-z-3/4,-y-1/4'
'x-1/4,z-1/4,y-1/4'
'x+1/2,y+1/2,z+1/2'
'x+3/4,-z+3/4,y+5/4'
'x+3/4,z+5/4,-y+5/4'
'z+3/4,y+5/4,-x+5/4'
'-z+3/4,y+5/4,x+3/4'
'-y+3/4,x+5/4,z+3/4'
'y+3/4,-x+3/4,z+5/4'
'z+1/2,x+1/2,y+1/2'
'y+1/2,z+1/2,x+1/2'
'-y+1/2,-z+1,x+1/2'
'z+1/2,-x+1/2,-y+1'
'-y+1,z+1/2,-x+1/2'
'-z+1/2,-x+1,y+1/2'
'-z+1,x+1/2,-y+1/2'
'y+1/2,-z+1/2,-x+1'
'x+1/2,-y+1/2,-z+1'
'-x+1,y+1/2,-z+1/2'
'-x+1/2,-y+1,z+1/2'
'y+3/4,x+5/4,-z+5/4'
'-y+3/4,-x+3/4,-z+3/4'
'z+3/4,-y+3/4,x+5/4'
'-z+3/4,-y+3/4,-x+3/4'
'-x+3/4,z+5/4,y+3/4'
'-x+3/4,-z+3/4,-y+3/4'
'-x+1/2,-y+1/2,-z+1/2'
'-x+1/4,z+1/4,-y-1/4'
'-x+1/4,-z-1/4,y-1/4'
'-z+1/4,-y-1/4,x-1/4'
'z+1/4,-y-1/4,-x+1/4'
'y+1/4,-x-1/4,-z+1/4'
'-y+1/4,x+1/4,-z-1/4'
'-z+1/2,-x+1/2,-y+1/2'
'-y+1/2,-z+1/2,-x+1/2'
'y+1/2,z,-x+1/2'
'-z+1/2,x+1/2,y'
'y,-z+1/2,x+1/2'
'z+1/2,x,-y+1/2'
'z,-x+1/2,y+1/2'
'-y+1/2,z+1/2,x'
'-x+1/2,y+1/2,z'
'x,-y+1/2,z+1/2'
'x+1/2,y,-z+1/2'
'-y+1/4,-x-1/4,z-1/4'
'y+1/4,x+1/4,z+1/4'
'-z+1/4,y+1/4,-x-1/4'
'z+1/4,y+1/4,x+1/4'
'x+1/4,-z-1/4,-y+1/4'
'x+1/4,z+1/4,y+1/4'


loop_
_atom_site_label
_atom_site_type_symbol
_atom_site_fract_x
_atom_site_fract_y
_atom_site_fract_z
_atom_site_occupancy
_atom_site_U_iso_or_equiv
NA1 Na 0.125 0.0 0.25 0.6667 0.0041
SI1 Si 0.66208 -0.41208 0.125 0.6667 0.0018
AL1 Al 0.66208 -0.41208 0.125 0.3333 0.0018
O1 O 0.10428 0.13440 0.71932 1.0 0.0037
H1 H 0.0791 0.0791 0.0791 0.25 0.0133
H2 H 0.1402 0.1006 0.0548 0.25 0.0105
O2 O 0.125 0.125 0.125 1.0 0.0087




