data_AlPO-C_Hydrated
_cell_length_a         19.3525
_cell_length_b         9.7272
_cell_length_c         9.7621
_cell_angle_alpha     90
_cell_angle_beta      90
_cell_angle_gamma     90


# setting 
_symmetry_space_group_name_H-M 'Pbca'


loop_
_symmetry_equiv_pos_as_xyz
'x,y,z'
'x+1/2,-y+1/2,-z'
'-x,y+1/2,-z+1/2'
'-x+1/2,-y,z+1/2'
'-x,-y,-z'
'-x-1/2,y-1/2,z'
'x,-y-1/2,z-1/2'
'x-1/2,y,-z-1/2'


loop_
_atom_site_label
_atom_site_type_symbol
_atom_site_fract_x
_atom_site_fract_y
_atom_site_fract_z
_atom_site_occupancy
_atom_site_U_iso_or_equiv
AL1 Al 0.44808 0.08470 0.32419 1.0 0.0029
AL2 Al 0.28207 0.33224 0.14654 1.0 0.0027
P1 P 0.44769 0.34071 0.13498 1.0 0.0028
P2 P 0.29050 0.06565 0.33879 1.0 0.0027
O1 O 0.37433 0.3765 0.1701 1.0 0.0049
O2 O 0.46047 0.1662 0.4804 1.0 0.0057
O3 O 0.49520 0.4497 0.1971 1.0 0.0053
O4 O 0.46889 0.2004 0.1942 1.0 0.0043
O5 O 0.27397 0.0582 0.4913 1.0 0.0037
O6 O 0.36522 0.0190 0.3136 1.0 0.0053
O7 O 0.28329 0.2158 0.2953 1.0 0.0043
O8 O 0.25855 0.4758 0.2592 1.0 0.0037
H1 H 0.15752 0.2988 0.0523 1.0 0.0666
H2 H 0.16096 0.2574 0.1883 1.0 0.0500
H3 H 0.28123 0.1025 0.0541 1.0 0.0220
H4 H 0.30108 0.1902 0.9490 1.0 0.0180
O9 O 0.18446 0.2831 0.1193 1.0 0.0073
O10 O 0.30512 0.1730 0.0340 1.0 0.0049
O11 O 0.11929 0.1440 0.3627 1.0 0.0190




