data_Quinuclidinium_fluoride_octadecasil
_cell_length_a         9.194
_cell_length_b         9.194
_cell_length_c         13.396
_cell_angle_alpha     90
_cell_angle_beta      90
_cell_angle_gamma     90


# setting 
_symmetry_space_group_name_H-M 'I4/m'


loop_
_symmetry_equiv_pos_as_xyz
'x,y,z'
'-y,x,z'
'y,-x,z'
'-x,-y,z'
'-x,-y,-z'
'y,-x,-z'
'-y,x,-z'
'x,y,-z'
'x+1/2,y+1/2,z+1/2'
'-y+1/2,x+1/2,z+1/2'
'y+1/2,-x+1/2,z+1/2'
'-x+1/2,-y+1/2,z+1/2'
'-x+1/2,-y+1/2,-z+1/2'
'y+1/2,-x+1/2,-z+1/2'
'-y+1/2,x+1/2,-z+1/2'
'x+1/2,y+1/2,-z+1/2'


loop_
_atom_site_label
_atom_site_type_symbol
_atom_site_fract_x
_atom_site_fract_y
_atom_site_fract_z
_atom_site_occupancy
_atom_site_U_iso_or_equiv
Si1 Si 0.2303 0.0387 0.1137 1.0 0.0077
Si2 Si 0.5 0.0 0.25 1.0 0.0060
O1 O 0.3724 0.0659 0.1817 1.0 0.0122
O2 O 0.3308 0.6201 0.3583 1.0 0.0161
O3 O 0.2883 0.0502 0.0 1.0 0.0172
C1 C 0.05 0.14 0.5 0.151 0.1508
C2 C 0.13 0.06 0.41 0.184 0.1836
C3 C 0.00 0.07 0.37 0.049 0.0490
C4 C 0.14 0.13 0.16 0.078 0.0779
F F 0.0 0.0 0.0 0.037 0.0369




