data_MAPO-39
_cell_length_a        13.2088
_cell_length_b        13.2088
_cell_length_c        5.2771
_cell_angle_alpha    90
_cell_angle_beta     90
_cell_angle_gamma    90


# setting 
# _symmetry_space_group_name_H-M 'I4/m'


loop_
_symmetry_equiv_pos_as_xyz
'x,y,z'
'-y,x,z'
'y,-x,z'
'-x,-y,z'
'-x,-y,-z'
'y,-x,-z'
'-y,x,-z'
'x,y,-z'
'x+1/2,y+1/2,z+1/2'
'-y+1/2,x+1/2,z+1/2'
'y+1/2,-x+1/2,z+1/2'
'-x+1/2,-y+1/2,z+1/2'
'-x+1/2,-y+1/2,-z+1/2'
'y+1/2,-x+1/2,-z+1/2'
'-y+1/2,x+1/2,-z+1/2'
'x+1/2,y+1/2,-z+1/2'


loop_
_atom_site_label
_atom_site_type_sumbol
_atom_site_fract_x
_atom_site_fract_y
_atom_site_fract_z
_atom_site_occupancy
_atom_site_U_iso_or_equiv
P1 P 0.21631 0.38206 0.0 0.898 0.0304
P2 P 0.1226 0.4167 0.0 0.04 0.0152
Al1 Al 0.37846 0.20842 0.0 0.4495 0.0317
Al3+1 Al3+ 0.37846 0.20842 0.0 0.4495 0.0317
Al2 Al 0.4104 0.1156 0.0 0.02 0.0203
Al3+2 Al3+ 0.4104 0.1156 0.0 0.02 0.0203
O1-1 O1- 0.31508 0.32477 0.0 0.959 0.0583
O1-2 O1- 0.15488 0.35625 0.2302 1.008 0.0861
O1-3 O1- 0.2418 0.49346 0.0 0.926 0.0621
O1-31 O1- 0.187 0.511 0.0 0.04 0.0418
O1-32 O1- 0.517 0.19 0.0 0.04 0.0418
O1-41 O1- 0.015 0.445 0.0 0.04 0.0418
C1 C 0.5 0.5 0.743 0.37 0.0545
C2 C 0.449 0.522 0.5 0.82 0.5801
C3 C 0.4857 0.513 0.0 0.259 0.3002
C4 C 0.4676 0.0389 0.0 0.381 0.1330




