data_MAPO-36_Calcined
_cell_length_a         13.1483
_cell_length_b         21.5771
_cell_length_c         5.1639
_cell_angle_alpha     90
_cell_angle_beta      91.84
_cell_angle_gamma     90


# setting 
# _symmetry_space_group_name_H-M 'C12/c1'


loop_
_symmetry_equiv_pos_as_xyz
'x,y,z'
'-x,y,-z+1/2'
'-x,-y,-z'
'x,-y,z-1/2'
'x+1/2,y+1/2,z'
'-x+1/2,y+1/2,-z+1/2'
'-x+1/2,-y+1/2,-z'
'x+1/2,-y+1/2,z-1/2'


loop_
_atom_site_label
_atom_site_type_sumbol
_atom_site_fract_x
_atom_site_fract_y
_atom_site_fract_z
_atom_site_occupancy
_atom_site_U_iso_or_equiv
T1 Si(T) 0.619 0.041 0.767 1.0 0.0117
T2 Si(T) 0.314 0.174 0.768 1.0 0.0117
T3 Si(T) 0.617 0.243 0.223 1.0 0.0117
O1 O 0.690 0.101 0.773 1.0 0.0157
O2 O 0.500 0.048 0.750 1.0 0.0157
O3 O 0.622 0.212 0.934 1.0 0.0157
O4 O 0.354 0.189 0.069 1.0 0.0157
O5 O 0.500 0.265 0.250 1.0 0.0157
O6 O 0.645 0.001 0.022 1.0 0.0157
O7 O 0.811 0.195 0.748 1.0 0.0157




