data_Tetramethylammonium_hydroxide_AlPO-12-TAMU
_cell_length_a         10.3325
_cell_length_b         14.6405
_cell_length_c         9.5112
_cell_angle_alpha     90
_cell_angle_beta      90
_cell_angle_gamma     90


# setting 
# _symmetry_space_group_name_H-M 'P21212'


loop_
_symmetry_equiv_pos_as_xyz
'x,y,z'
'x+1/2,-y+1/2,-z'
'-x+1/2,y+1/2,-z'
'-x,-y,z'


loop_
_atom_site_label
_atom_site_type_sumbol
_atom_site_fract_x
_atom_site_fract_y
_atom_site_fract_z
_atom_site_occupancy
_atom_site_U_iso_or_equiv
AL1 Al 0.354 0.608 0.387 1.0 0.0380
AL2 Al 0.366 0.896 0.383 1.0 0.0380
AL3 Al 0.349 0.249 0.139 1.0 0.0380
P1 P 0.339 0.770 0.157 1.0 0.0608
P2 P 0.354 0.112 0.368 1.0 0.0608
P3 P 0.343 0.415 0.369 1.0 0.0608
O1 O 0.338 0.696 0.272 1.0 0.0545
O2 O 0.311 0.864 0.218 1.0 0.0545
O3 O 0.482 0.758 0.086 1.0 0.0545
O4 O 0.249 0.764 0.018 1.0 0.0545
O5 O 0.318 0.137 0.210 1.0 0.0545
O6 O 0.370 0.012 0.381 1.0 0.0545
O7 O 0.485 0.168 0.412 1.0 0.0545
O8 O 0.244 0.143 0.466 1.0 0.0545
O9 O 0.300 0.506 0.317 1.0 0.0545
O10 O 0.337 0.349 0.242 1.0 0.0545
O11 O 0.482 0.412 0.425 1.0 0.0545
O12 O 0.254 0.381 0.488 1.0 0.0545
C1 C -0.024 0.089 0.196 1.0 0.1659
C2 C -0.131 -0.017 0.004 1.0 0.1659
C3 C -0.018 0.587 0.249 1.0 0.1659
C4 C -0.129 0.482 0.065 1.0 0.1659
N1 N 0.000 0.000 0.100 1.0 0.1659
N2 N 0.000 0.500 0.158 1.0 0.1659
O13 O 0.000 0.000 0.284 1.0 0.1659
O14 O 0.000 0.500 -0.024 1.0 0.1659




