data_AlPO-25
_cell_length_a         9.4489
_cell_length_b         15.2028
_cell_length_c         8.4084
_cell_angle_alpha     90
_cell_angle_beta      90
_cell_angle_gamma     90


# setting 
_symmetry_space_group_name_H-M 'Acmm'


loop_
_symmetry_equiv_pos_as_xyz
'x,y,z'
'x,-y+1/2,-z'
'-x,y+1/2,-z'
'-x,-y,z'
'-x,-y,-z'
'-x,y-1/2,z'
'x,-y-1/2,z'
'x,y,-z'
'x,y+1/2,z+1/2'
'x,-y+1,-z+1/2'
'-x,y+1,-z+1/2'
'-x,-y+1/2,z+1/2'
'-x,-y+1/2,-z+1/2'
'-x,y,z+1/2'
'x,-y,z+1/2'
'x,y+1/2,-z+1/2'


loop_
_atom_site_label
_atom_site_type_symbol
_atom_site_fract_x
_atom_site_fract_y
_atom_site_fract_z
_atom_site_occupancy
_atom_site_U_iso_or_equiv
AL1 Al 0.3535 0.0982 0.1987 0.5 0.0333
AL2 Al 0.1566 0.2500 0.3142 0.5 0.0117
P1 P 0.3535 0.0982 0.1987 0.5 0.0333
P2 P 0.1566 0.2500 0.3142 0.5 0.0117
O1 O 0.3017 0.0000 0.2500 1.0 0.0247
O2 O 0.5000 0.1275 0.2500 1.0 0.0263
O3 O 0.2317 0.1625 0.2497 1.0 0.0320
O4 O 0.3308 0.0971 0.0000 1.0 0.0374
O5 O 0.0000 0.2500 0.2500 1.0 0.0233
O6 O 0.1076 0.2500 0.5000 1.0 0.0730




