data_Quinuclidine_AlPO-22
_cell_length_a         13.628
_cell_length_b         13.628
_cell_length_c         15.463
_cell_angle_alpha     90
_cell_angle_beta      90
_cell_angle_gamma     90


# setting 2
# _symmetry_space_group_name_H-M 'P4/ncc'


loop_
_symmetry_equiv_pos_as_xyz
'x,y,z'
'-y+1/2,x,z'
'y,-x+1/2,z'
'x+1/2,-y,-z+1/2'
'-x,y+1/2,-z+1/2'
'-x+1/2,-y+1/2,z'
'y+1/2,x+1/2,-z+1/2'
'-y,-x,-z+1/2'
'-x,-y,-z'
'y-1/2,-x,-z'
'-y,x-1/2,-z'
'-x-1/2,y,z-1/2'
'x,-y-1/2,z-1/2'
'x-1/2,y-1/2,-z'
'-y-1/2,-x-1/2,z-1/2'
'y,x,z-1/2'


loop_
_atom_site_label
_atom_site_type_sumbol
_atom_site_fract_x
_atom_site_fract_y
_atom_site_fract_z
_atom_site_occupancy
_atom_site_U_iso_or_equiv
AL1 Al 0.1360 0.8640 0.2500 1.0 0.0080
AL2 Al 0.4660 -0.1419 0.4284 1.0 0.0107
P1 P 0.1354 0.8646 0.7500 1.0 0.0093
P2 P 0.6308 0.0185 0.4214 1.0 0.0100
O1 O 0.2565 -0.1166 0.2738 1.0 0.0137
O2 O 0.4998 -0.2584 0.4317 1.0 0.0140
O3 O 0.4258 -0.1044 0.3241 1.0 0.0174
O4 O 0.5794 -0.0795 0.4309 1.0 0.0170
O5 O 0.1060 -0.0629 0.1620 1.0 0.0190
O6 O 0.599 0.0912 0.4905 1.0 0.0340
C1 C 0.250 0.250 0.739 1.0 0.1600
C2 C 0.282 0.163 0.389 0.25 0.1600
C3 C 0.274 0.339 0.389 0.25 0.1600
C5 C 0.227 0.157 0.302 0.25 0.1600
C6 C 0.219 0.341 0.302 0.25 0.1600
C8 C 0.250 0.250 0.249 1.0 0.1600
C9 C 0.250 0.250 0.298 1.0 0.1600
N1 N 0.250 0.250 0.4389 1.0 0.1600
P3 P 0.250 0.750 0.000 0.5 0.0110
O7 O 0.164 0.787 0.936 0.5 0.0090
O8 O 0.276 0.0852 0.4213 0.03 0.0667




