data_Bikitaite
_cell_length_a         8.6071
_cell_length_b         4.9540
_cell_length_c         7.5972
_cell_angle_alpha     89.900
_cell_angle_beta      114.437
_cell_angle_gamma     89.988


# setting 
# _symmetry_space_group_name_H-M 'P1'


loop_
_symmetry_equiv_pos_as_xyz
'x,y,z'


loop_
_atom_site_label
_atom_site_type_sumbol
_atom_site_fract_x
_atom_site_fract_y
_atom_site_fract_z
_atom_site_occupancy
_atom_site_U_iso_or_equiv
LI1 Li 0.3095 0.3657 0.1469 0.91 0.0136
LI2 Li 0.6995 0.8665 0.8722 0.947 0.0172
SI11 Si 0.1057 0.8645 0.0975 0.957 0.0053
SI12 Si 0.1038 0.8006 0.5049 0.981 0.0065
SI22 Si 0.8920 0.2984 0.4877 0.981 0.0067
SI23 Si 0.6187 0.3748 0.0630 0.975 0.0052
AL13 Al 0.3803 0.8749 0.9374 1.061 0.0073
AL21 Al 0.8985 0.3639 0.9065 1.066 0.0073
O11 O 0.2641 0.7404 0.0569 1.0 0.0108
O12 O 0.0830 0.1853 0.0413 1.0 0.0123
O13 O 0.1584 0.8281 0.3279 1.0 0.0189
O14 O 0.0557 0.4868 0.5173 1.0 0.0190
O15 O 0.2612 0.8920 0.6947 1.0 0.0170
O16 O 0.4496 0.1940 0.0282 1.0 0.0111
O21 O 0.7311 0.2433 0.9552 1.0 0.0108
O22 O 0.9283 0.7021 0.9708 1.0 0.0124
O23 O 0.8414 0.3281 0.6655 1.0 0.0193
O24 O 0.9378 0.9872 0.4657 1.0 0.0184
O25 O 0.7318 0.3929 0.2966 1.0 0.0163
O26 O 0.5593 0.6797 0.9807 1.0 0.0108
H11 H 0.3230 0.2849 0.4786 1.0 0.0755
H12 H 0.4870 0.1784 0.4863 1.0 0.0660
H21 H 0.6853 0.7872 0.5420 1.0 0.0804
H22 H 0.5214 0.6763 0.5343 1.0 0.0669
O17 O 0.4083 0.3224 0.4347 1.0 0.0298
O27 O 0.5991 0.8225 0.5871 1.0 0.0298




