data_Boggsite
_cell_length_a         20.236
_cell_length_b         23.798
_cell_length_c         12.798
_cell_angle_alpha     90
_cell_angle_beta      90
_cell_angle_gamma     90


# setting 
# _symmetry_space_group_name_H-M 'Imma'


loop_
_symmetry_equiv_pos_as_xyz
'x,y,z'
'x,-y,-z'
'-x,y+1/2,-z'
'-x,-y+1/2,z'
'-x,-y,-z'
'-x,y,z'
'x,-y-1/2,z'
'x,y-1/2,-z'
'x+1/2,y+1/2,z+1/2'
'x+1/2,-y+1/2,-z+1/2'
'-x+1/2,y+1,-z+1/2'
'-x+1/2,-y+1,z+1/2'
'-x+1/2,-y+1/2,-z+1/2'
'-x+1/2,y+1/2,z+1/2'
'x+1/2,-y,z+1/2'
'x+1/2,y,-z+1/2'


loop_
_atom_site_label
_atom_site_type_sumbol
_atom_site_fract_x
_atom_site_fract_y
_atom_site_fract_z
_atom_site_occupancy
_atom_site_U_iso_or_equiv
SI1 Si 0.18881 0.18550 0.67190 0.81 0.0175
SI2 Si 0.19006 0.02407 0.32970 0.81 0.0195
SI3 Si 0.07689 0.18517 0.83570 0.81 0.0163
SI4 Si 0.07768 0.022100 0.164300 0.81 0.0179
SI5 Si 0.22108 0.083000 0.537800 0.81 0.0171
SI6 Si 0.12270 0.083710 0.965600 0.81 0.0171
AL1 Al 0.18881 0.18550 0.67190 0.19 0.0175
AL2 Al 0.19006 0.02407 0.32970 0.19 0.0195
AL3 Al 0.07689 0.18517 0.83570 0.19 0.0163
AL4 Al 0.07768 0.02210 0.16430 0.19 0.0179
AL5 Al 0.22108 0.08300 0.53780 0.19 0.0171
AL6 Al 0.12270 0.08371 0.96560 0.19 0.0171
O1 O 0.18820 0.250000 0.629100 1.0 0.0300
O2 O 0.11940 0.170700 0.732200 1.0 0.0338
O3 O 0.195000 0.145600 0.567900 1.0 0.0350
O4 O 0.190000 0.070200 0.423600 1.0 0.0361
O5 O 0.119400 0.031900 0.272200 1.0 0.0361
O6 O 0.089300 0.250000 0.873100 1.0 0.0281
O7 O 0.000000 0.173800 0.804300 1.0 0.0312
O8 O 0.000000 0.026300 0.196800 1.0 0.0399
O9 O 0.194400 0.037900 0.620400 1.0 0.0540
O10 O 0.097800 0.146400 0.932700 1.0 0.0391
O11 O 0.095900 0.072500 0.081300 1.0 0.0441
O12 O 0.200700 0.080000 0.968200 1.0 0.0711
O13 O 0.094900 0.039500 0.884700 1.0 0.0460
O14 O 0.250000 0.175500 0.750000 1.0 0.0399
O15 O 0.250000 -0.037500 0.750000 1.0 0.0429
H2O1 O2-(H2O) 0.000000 0.173500 0.136000 1.85 0.6999
H2O2 O2-(H2O) 0.193600 0.170100 0.203000 1.35 0.4799
H2O3 O2-(H2O) 0.193000 0.250000 0.057000 0.92 0.2500
H2O4 O2-(H2O) 0.107400 0.175400 0.372000 1.16 0.4301
H2O5 O2-(H2O) 0.000000 0.175000 0.570000 3.2 1.4400
H2O6 O2-(H2O) 0.000000 0.028400 0.429000 0.91 0.3302
H2O7 O2-(H2O) 0.056200 0.114700 0.410000 0.63 0.2500
H2O8 O2-(H2O) 0.043100 0.081200 0.626000 0.77 0.2701
H2O9 O2-(H2O) 0.149000 0.250000 0.237000 0.5 0.1801
H2O10 O2-(H2O) 0.106000 0.250000 0.086000 0.61 0.1900
H2O11 O2-(H2O) 0.206000 0.250000 0.401000 1.32 0.4400




