data_Beryllophosphate-H
_cell_length_a         12.5815
_cell_length_b         12.5815
_cell_length_c         12.4508
_cell_angle_alpha     90
_cell_angle_beta      90
_cell_angle_gamma     120


# setting 
_symmetry_space_group_name_H-M 'P321'


loop_
_symmetry_equiv_pos_as_xyz
'x,y,z'
'-y,x-y,z'
'-x+y,-x,z'
'x-y,-y,-z'
'-x,-x+y,-z'
'y,x,-z'


loop_
_atom_site_label
_atom_site_type_symbol
_atom_site_fract_x
_atom_site_fract_y
_atom_site_fract_z
_atom_site_occupancy
_atom_site_U_iso_or_equiv
NA1 Na 0.3333 0.6667 0.502 1.0 0.0129
NA2 Na 0.184 0.164 0.317 1.06 0.1809
K1 K 0.6260 0.0000 0.5000 1.0 0.0129
K2 K 0.5230 0.0000 0.0000 0.83 0.1721
BE1 Be 0.6667 0.3333 0.1311 1.0 0.0011
BE2 Be 0.3576 0.4981 0.2681 1.0 0.0391
BE3 Be 0.6996 0.5607 0.3819 1.0 0.0042
P1 P 0.3333 0.6667 0.1199 1.0 0.0010
P2 P 0.4907 0.3534 0.2699 1.0 0.0220
P3 P 0.5609 0.6992 0.3793 1.0 0.0141
O1 O 0.5696 0.3736 0.1701 1.0 0.0410
O2 O 0.3333 0.6667 -0.0013 1.0 0.0312
O3 O 0.4332 0.5920 0.3659 1.0 0.0011
O4 O 0.4078 0.4054 0.2520 1.0 0.0011
O5 O 0.5869 0.8005 0.2973 1.0 0.0471
O6 O 0.4231 0.7992 0.1584 1.0 0.0122
O7 O 0.4102 0.2168 0.2954 1.0 0.0011
O8 O 0.5842 0.4242 0.3611 1.0 0.0220
O9 O 0.6548 0.6592 0.3646 1.0 0.0361
O10 O 0.5705 0.7509 0.4945 1.0 0.0209
H2O1 O2-(H2O) 0.406 0.282 -0.002 1.25 0.0938
H2O2 O2-(H2O) 0.079 -0.070 0.160 0.83 0.2348
H2O3 O2-(H2O) 0.045 0.237 -0.116 1.06 0.1520
H2O4 O2-(H2O) 0.044 0.168 0.515 1.02 0.1151
H2O5 O2-(H2O) 0.647 0.622 0.129 0.92 0.1349




