data_Brewsterite
_cell_length_a         6.793
_cell_length_b         17.573
_cell_length_c         7.759
_cell_angle_alpha     90
_cell_angle_beta      94.54
_cell_angle_gamma     90


# setting 
# _symmetry_space_group_name_H-M 'P121/m1'


loop_
_symmetry_equiv_pos_as_xyz
'x,y,z'
'-x,y+1/2,-z'
'-x,-y,-z'
'x,-y-1/2,z'


loop_
_atom_site_label
_atom_site_type_sumbol
_atom_site_fract_x
_atom_site_fract_y
_atom_site_fract_z
_atom_site_occupancy
_atom_site_U_iso_or_equiv
O3 O 0.7825 0.1211 0.5454 1.0 0.0244
O4 O 0.4500 0.1408 0.7150 1.0 0.0252
O5 O 0.0850 0.0920 0.7615 1.0 0.0295
O6 O 0.2228 0.9966 0.2388 1.0 0.0350
O7 O 0.3851 0.9921 0.7952 1.0 0.0232
O8 O 0.0000 0.0000 0.5000 1.0 0.0404
O9 O 0.5718 0.2500 0.4994 1.0 0.0356
H2O1 O2-(H2O) 0.0598 0.2500 0.4699 1.0 0.0524
H2O2 O2-(H2O) 0.9286 0.1474 0.1518 1.0 0.0709
H2O3 O2-(H2O) 0.5996 0.2500 0.0241 1.0 0.0556
H2O4 O2-(H2O) 0.0665 0.2500 0.8660 1.0 0.0538
BA Ba 0.2501 0.2500 0.1780 0.26 0.0151
SR Sr 0.2501 0.2500 0.1780 0.74 0.0151
SI1 Si 0.3218 0.0812 0.8224 0.75 0.0139
SI2 Si 0.4054 0.0566 0.2108 0.75 0.0152
SI3 Si 0.5553 0.1582 0.5336 0.75 0.0138
SI4 Si 0.9087 0.0528 0.6410 0.75 0.0128
AL1 Al 0.3218 0.0812 0.8224 0.25 0.0139
AL2 Al 0.4054 0.0566 0.2108 0.25 0.0152
AL3 Al 0.5553 0.1582 0.5336 0.25 0.0138
AL4 Al 0.9087 0.0528 0.6410 0.25 0.0128
O1 O 0.3501 0.1059 0.0283 1.0 0.0225
O2 O 0.4218 0.1240 0.3607 1.0 0.0294




