data_Methylbutylamine_SAPO-47
_cell_length_a         9.3834
_cell_length_b         9.3834
_cell_length_c         9.3834
_cell_angle_alpha     94.085
_cell_angle_beta      94.085
_cell_angle_gamma     94.085


# setting R
_symmetry_space_group_name_H-M 'R-3'


loop_
_symmetry_equiv_pos_as_xyz
'x,y,z'
'z,x,y'
'y,z,x'
'-x,-y,-z'
'-z,-x,-y'
'-y,-z,-x'


loop_
_atom_site_label
_atom_site_type_symbol
_atom_site_fract_x
_atom_site_fract_y
_atom_site_fract_z
_atom_site_occupancy
_atom_site_U_iso_or_equiv
AL Al 0.09888 0.33196 0.87510 0.912 0.0152
P1 P 0.33245 0.10847 0.87466 0.895 0.0149
O1 O 0.2580 -0.2704 -0.0127 1.0 0.0350
O2 O 0.1519 -0.1445 0.4911 1.0 0.0307
O3 O 0.2542 0.2460 0.8876 1.0 0.0352
O4 O 0.0291 0.0104 0.3178 1.0 0.0381
C1 C -0.132 0.524 0.500 0.344 0.2270
C2 C 0.112 0.492 0.440 0.344 0.4040
C3 C 0.189 0.353 0.424 0.344 0.4040
C4 C 0.334 0.382 0.359 0.344 0.4040
C5 C 0.449 0.303 0.439 0.344 0.4040
N1 N 0.009 0.480 0.551 0.344 0.2270




