data_CIT-1
_cell_length_a         22.6242
_cell_length_b         13.3503
_cell_length_c         12.3642
_cell_angle_alpha     90
_cell_angle_beta      68.913
_cell_angle_gamma     90


# setting 
# _symmetry_space_group_name_H-M 'C12/m1'


loop_
_symmetry_equiv_pos_as_xyz
'x,y,z'
'-x,y,-z'
'-x,-y,-z'
'x,-y,z'
'x+1/2,y+1/2,z'
'-x+1/2,y+1/2,-z'
'-x+1/2,-y+1/2,-z'
'x+1/2,-y+1/2,z'


loop_
_atom_site_label
_atom_site_type_sumbol
_atom_site_fract_x
_atom_site_fract_y
_atom_site_fract_z
_atom_site_occupancy
_atom_site_U_iso_or_equiv
SI1 Si 0.0677 0.1102 0.4914 1.0 0.0187
SI2 Si 0.1567 0.1889 0.2510 1.0 0.0187
SI3 Si 0.0734 0.1204 0.7390 1.0 0.0187
SI4 Si 0.2879 0.1171 0.1026 1.0 0.0187
SI5 Si 0.2770 0.1141 0.8607 1.0 0.0187
SI6 Si 0.0738 0.1195 0.1043 1.0 0.0187
SI7 Si 0.1480 0.1898 0.8835 1.0 0.0187
O8 O 0.1271 0.1859 0.7717 1.0 0.0180
O9 O 0.3045 0.0000 0.1272 1.0 0.0180
O1 O 0.1205 0.1669 0.3814 1.0 0.0180
O2 O 0.0000 0.1458 0.5000 1.0 0.0180
O3 O 0.2185 0.1200 0.2009 1.0 0.0180
O4 O 0.1097 0.1569 0.1860 1.0 0.0180
O5 O 0.1728 0.3005 0.2109 1.0 0.0180
O6 O 0.0852 0.0000 0.7309 1.0 0.0180
O7 O 0.0003 0.1379 0.8223 1.0 0.0180
O8 O 0.1271 0.1859 0.7717 1.0 0.0180
O9 O 0.3045 0.0000 0.1272 1.0 0.0180
O10 O 0.2721 0.1330 0.9904 1.0 0.0180
O11 O 0.3442 0.1888 0.0983 1.0 0.0180
O12 O 0.2102 0.1217 0.8382 1.0 0.0180
O13 O 0.3046 0.0000 0.8219 1.0 0.0180
O14 O 0.0873 0.0000 0.1087 1.0 0.0180
O15 O 0.0837 0.1783 0.9900 1.0 0.0180




