data_Dachiardite
_cell_length_a         18.676
_cell_length_b         7.518
_cell_length_c         10.246
_cell_angle_alpha     90
_cell_angle_beta      107.87
_cell_angle_gamma     90


# setting 
_symmetry_space_group_name_H-M 'C12/m1'


loop_
_symmetry_equiv_pos_as_xyz
'x,y,z'
'-x,y,-z'
'-x,-y,-z'
'x,-y,z'
'x+1/2,y+1/2,z'
'-x+1/2,y+1/2,-z'
'-x+1/2,-y+1/2,-z'
'x+1/2,-y+1/2,z'


loop_
_atom_site_label
_atom_site_type_symbol
_atom_site_fract_x
_atom_site_fract_y
_atom_site_fract_z
_atom_site_occupancy
_atom_site_U_iso_or_equiv
K1 K 0.4544 0.0 0.4626 0.156 0.1305
CA Ca -0.0091 0.2598 0.1297 0.345 0.0988
SI11 Si 0.2905 0.2084 0.1496 0.4 0.0152
SI12 Si 0.2846 0.2053 0.1660 0.4 0.0139
SI21 Si 0.1914 0.2901 0.3371 0.4 0.0165
SI22 Si 0.1929 0.2978 0.3714 0.4 0.0127
SI3 Si 0.0964 0.0 0.7007 0.8 0.0139
SI4 Si 0.0816 0.0 0.3793 0.8 0.0152
AL11 Al 0.2905 0.2084 0.1496 0.1 0.0152
AL12 Al 0.2846 0.2053 0.1660 0.1 0.0139
AL21 Al 0.1914 0.2901 0.3371 0.1 0.0165
AL22 Al 0.1929 0.2978 0.3714 0.1 0.0127
AL3 Al 0.0964 0.0 0.7007 0.2 0.0139
AL4 Al 0.0816 0.0 0.3793 0.2 0.0152
O1 O 0.3636 0.3239 0.2168 1.0 0.0418
O2 O 0.1162 0.1770 0.3265 1.0 0.0393
O31 O 0.2188 0.2642 0.2070 0.5 0.0304
O32 O 0.2382 0.2370 0.2652 0.5 0.0545
O4 O 0.1002 0.0 0.5457 1.0 0.0545
O5 O 0.1688 0.5000 0.3487 1.0 0.0507
O6 O 0.3098 0.0 0.1759 1.0 0.0443
O7 O 0.2335 0.2452 0.0131 0.5 0.0405
O8 O 0.2427 0.2777 0.5249 0.5 0.0367
O9 O 0.0103 0.0 0.7080 1.0 0.0241
H2O1 O2-(H2O) -0.0084 0.5 0.2668 1.0 0.0684
H2O2 O2-(H2O) 0.0884 0.0 0.0330 0.5 0.0849
H2O3 O2-(H2O) 0.0694 0.1037 0.0261 0.25 0.0950
H2O4 O2-(H2O) 0.0724 0.3931 0.0258 0.25 0.0823
H2O5 O2-(H2O) 0.0860 0.5000 0.0310 0.5 0.0760




