data_Decamethonium_DAF-1
_cell_length_a         22.351
_cell_length_b         22.351
_cell_length_c         21.693
_cell_angle_alpha     90
_cell_angle_beta      90
_cell_angle_gamma     120


# setting 
# _symmetry_space_group_name_H-M 'P6/mmm'


loop_
_symmetry_equiv_pos_as_xyz
'x,y,z'
'x-y,x,z'
'y,-x+y,z'
'-y,x-y,z'
'-x+y,-x,z'
'x-y,-y,-z'
'-x,-x+y,-z'
'-x,-y,z'
'y,x,-z'
'-y,-x,-z'
'-x+y,y,-z'
'x,x-y,-z'
'-x,-y,-z'
'-x+y,-x,-z'
'-y,x-y,-z'
'y,-x+y,-z'
'x-y,x,-z'
'-x+y,y,z'
'x,x-y,z'
'x,y,-z'
'-y,-x,z'
'y,x,z'
'x-y,-y,z'
'-x,-x+y,z'


loop_
_atom_site_label
_atom_site_type_sumbol
_atom_site_fract_x
_atom_site_fract_y
_atom_site_fract_z
_atom_site_occupancy
_atom_site_U_iso_or_equiv
T1 Si(T) 0.0803 0.3024 0.50000 1.0 0.0237
T2 Si(T) 0.1471 0.4356 0.1836 1.0 0.0238
T3 Si(T) 0.0816 0.4710 0.2940 1.0 0.0228
T4 Si(T) 0.0811 0.4703 0.0727 1.0 0.0287
T5 Si(T) 0.1217 0.3812 0.3706 1.0 0.0250
T6 Si(T) 0.0782 0.2904 0.2486 1.0 0.0260
O1 O 0.0993 0.3514 0.1995 1.0 0.0470
O2 O 0.0923 0.3520 0.4391 1.0 0.0519
O3 O 0.1063 0.4430 0.3533 1.0 0.0441
O4 O 0.1306 0.4517 0.1122 1.0 0.0442
O5 O 0.1298 0.4794 0.2351 1.0 0.0553
O6 O 0.0847 0.3203 0.3175 1.0 0.0504
O7 O 0.0 0.2363 0.5 1.0 0.0417
O8 O 0.1375 0.2750 0.5 1.0 0.0553
O9 O 0.0 0.2285 0.2361 1.0 0.0365
O10 O 0.0 0.4158 0.879 1.0 0.0548
O11 O 0.0 0.4188 0.2775 1.0 0.0450
O12 O 0.0953 0.4615 0.0 1.0 0.0476
O13 O 0.2295 0.4590 0.1903 1.0 0.0437
O14 O 0.0935 0.5468 0.3133 1.0 0.0352
O15 O 0.2050 0.4101 0.3678 1.0 0.0355
O16 O 0.1293 0.2586 0.2404 1.0 0.0355
O17 O 0.0974 0.5487 0.0867 1.0 0.0552
C1 C 0.5 0.0 0.5 1.0 0.1500
C2 C 0.4453 0.0246 0.5 0.3333 0.1500
C3 C 0.5197 0.0394 0.4403 0.3333 0.1500
C4 C 0.66667 0.33333 0.2688 1.0 0.1500
C5 C 0.6406 0.2811 0.3088 0.3333 0.1500
C6 C 0.5949 0.2974 0.3129 0.3333 0.1225




