data_UTD-1F
_cell_length_a        14.9701
_cell_length_b        8.4761
_cell_length_c        30.0278
_cell_angle_alpha    90
_cell_angle_beta     102.65
_cell_angle_gamma    90


# setting 
_symmetry_space_group_name_H-M 'P1c1'


loop_
_symmetry_equiv_pos_as_xyz
'x,y,z'
'x,-y,z+1/2'


loop_
_atom_site_label
_atom_site_type_symbol
_atom_site_fract_x
_atom_site_fract_y
_atom_site_fract_z
_atom_site_occupancy
_atom_site_U_iso_or_equiv
Si1 Si 0.096 0.180 0.1066 1.0 0.0120
Si2 Si 0.076 0.313 0.1986 1.0 0.0120
Si3 Si 0.124 0.180 0.2943 1.0 0.0120
Si4 Si 0.240 0.305 0.3824 1.0 0.0120
Si5 Si 0.410 0.176 0.4374 1.0 0.0120
Si6 Si 0.608 0.306 0.4689 1.0 0.0120
Si7 Si 0.793 0.183 0.4654 1.0 0.0120
Si8 Si 0.912 0.307 0.3992 1.0 0.0120
Si9 Si 0.929 0.182 0.3045 1.0 0.0120
Si10 Si 0.868 0.309 0.2072 1.0 0.0120
Si11 Si 0.769 0.176 0.1199 1.0 0.0120
Si12 Si 0.585 0.308 0.0659 1.0 0.0120
Si13 Si 0.398 0.190 0.040 1.0 0.0120
Si14 Si 0.206 0.316 0.041 1.0 0.0120
Si15 Si 0.902 0.318 0.0631 1.0 0.0120
Si16 Si 0.108 0.180 0.4432 1.0 0.0120
Si17 Si 0.081 0.816 0.1046 1.0 0.0120
Si18 Si 0.076 0.675 0.1994 1.0 0.0120
Si19 Si 0.127 0.807 0.2936 1.0 0.0120
Si20 Si 0.239 0.678 0.3836 1.0 0.0120
Si21 Si 0.418 0.808 0.4366 1.0 0.0120
Si22 Si 0.604 0.687 0.4663 1.0 0.0120
Si23 Si 0.798 0.810 0.4672 1.0 0.0120
Si24 Si 0.914 0.679 0.4024 1.0 0.0120
Si25 Si 0.931 0.797 0.3052 1.0 0.0120
Si26 Si 0.867 0.670 0.2096 1.0 0.0120
Si27 Si 0.762 0.809 0.1211 1.0 0.0120
Si28 Si 0.587 0.313 0.5659 1.0 0.0120
Si29 Si 0.386 0.181 0.5374 1.0 0.0120
Si30 Si 0.194 0.685 0.040 1.0 0.0120
Si31 Si 0.890 0.318 0.5625 1.0 0.0120
Si32 Si 0.110 0.808 0.4458 1.0 0.0120
O1 O 0.169 0.278 0.0863 1.0 0.0041
O2 O 0.108 0.208 0.1608 1.0 0.0041
O3 O 0.131 0.265 0.2484 1.0 0.0041
O4 O 0.101 0.494 0.1903 1.0 0.0041
O5 O 0.209 0.230 0.3331 1.0 0.0041
O6 O 0.033 0.230 0.3097 1.0 0.0041
O7 O 0.125 0.995 0.287 1.0 0.0041
O8 O 0.348 0.283 0.3979 1.0 0.0041
O9 O 0.191 0.220 0.4183 1.0 0.0041
O10 O 0.215 0.491 0.3798 1.0 0.0041
O11 O 0.513 0.230 0.443 1.0 0.0041
O12 O 0.375 0.202 0.4835 1.0 0.0041
O13 O 0.689 0.237 0.4472 1.0 0.0041
O14 O 0.624 0.264 0.5218 1.0 0.0041
O15 O 0.601 0.496 0.4626 1.0 0.0041
O16 O 0.851 0.210 0.4274 1.0 0.0041
O17 O 0.839 0.279 0.5109 1.0 0.0041
O18 O 0.890 0.251 0.3468 1.0 0.0041
O19 O 0.797 0.997 0.4778 1.0 0.0041
O20 O 0.887 0.494 0.402 1.0 0.0041
O21 O 0.870 0.253 0.2581 1.0 0.0041
O22 O 0.919 0.990 0.3025 1.0 0.0041
O23 O 0.797 0.197 0.1738 1.0 0.0041
O24 O 0.967 0.294 0.195 1.0 0.0041
O25 O 0.831 0.489 0.2009 1.0 0.0041
O26 O 0.664 0.227 0.1035 1.0 0.0041
O27 O 0.833 0.285 0.0962 1.0 0.0041
O28 O 0.489 0.247 0.0739 1.0 0.0041
O29 O 0.598 0.741 0.5166 1.0 0.0041
O30 O 0.590 0.502 0.5718 1.0 0.0041
O31 O 0.314 0.288 0.0503 1.0 0.0041
O32 O 0.382 0.996 0.5496 1.0 0.0041
O33 O 0.186 0.499 0.0267 1.0 0.0041
O34 O 0.112 0.995 0.0982 1.0 0.0041
O35 O 0.853 0.725 0.5119 1.0 0.0041
O36 O 0.994 0.221 0.0794 1.0 0.0041
O37 O 0.929 0.497 0.5648 1.0 0.0041
O38 O 0.019 0.282 0.4218 1.0 0.0041
O39 O 0.140 0.216 0.497 1.0 0.0041
O40 O 0.146 0.707 0.0822 1.0 0.0041
O41 O 0.095 0.780 0.1582 1.0 0.0041
O42 O 0.140 0.730 0.2469 1.0 0.0041
O43 O 0.212 0.756 0.334 1.0 0.0041
O44 O 0.034 0.750 0.3059 1.0 0.0041
O45 O 0.346 0.700 0.4027 1.0 0.0041
O46 O 0.185 0.760 0.4177 1.0 0.0041
O47 O 0.518 0.757 0.4306 1.0 0.0041
O48 O 0.406 0.218 0.988 1.0 0.0041
O49 O 0.401 0.992 0.4223 1.0 0.0041
O50 O 0.695 0.749 0.4535 1.0 0.0041
O51 O 0.848 0.780 0.4262 1.0 0.0041
O52 O 0.903 0.736 0.3507 1.0 0.0041
O53 O 0.864 0.721 0.2612 1.0 0.0041
O54 O 0.799 0.786 0.1748 1.0 0.0041
O55 O 0.969 0.689 0.2014 1.0 0.0041
O56 O 0.655 0.232 0.6092 1.0 0.0041
O57 O 0.817 0.305 0.5948 1.0 0.0041
O58 O 0.780 0.991 0.1064 1.0 0.0041
O59 O 0.484 0.252 0.5629 1.0 0.0041
O60 O 0.303 0.269 0.5536 1.0 0.0041
O61 O 0.975 0.203 0.5788 1.0 0.0041
O62 O 0.153 0.211 0.9993 1.0 0.0041
O63 O 0.083 0.993 0.4353 1.0 0.0041
O64 O 0.019 0.702 0.4307 1.0 0.0041
Co1 Co 0.502 0.258 0.2542 1.0 0.0231
C1 C 0.518 0.060 0.218 1.0 0.0700
C2 C 0.577 0.054 0.262 1.0 0.0700
C3 C 0.523 0.062 0.295 1.0 0.0700
C4 C 0.429 0.071 0.271 1.0 0.0700
C5 C 0.426 0.070 0.224 1.0 0.0700
C6 C 0.558 0.063 0.346 1.0 0.1399
C7 C 0.681 0.030 0.271 1.0 0.1399
C8 C 0.546 0.050 0.172 1.0 0.1399
C9 C 0.340 0.070 0.186 1.0 0.1399
C10 C 0.347 0.068 0.294 1.0 0.1399
C11 C 0.543 0.450 0.222 1.0 0.0700
C12 C 0.584 0.453 0.270 1.0 0.0700
C13 C 0.512 0.457 0.294 1.0 0.0700
C14 C 0.427 0.456 0.262 1.0 0.0700
C15 C 0.446 0.452 0.217 1.0 0.0700
C16 C 0.525 0.473 0.345 1.5 0.1399
C17 C 0.686 0.457 0.291 1.5 0.1399
C18 C 0.594 0.456 0.184 1.5 0.1399
C19 C 0.376 0.462 0.172 1.5 0.1399
C20 C 0.333 0.466 0.272 1.5 0.1399




