data_Bellbergite
_cell_length_a         13.244
_cell_length_b         13.244
_cell_length_c         15.988
_cell_angle_alpha     90
_cell_angle_beta      90
_cell_angle_gamma     120


# setting 
# _symmetry_space_group_name_H-M 'P63/mmc'


loop_
_symmetry_equiv_pos_as_xyz
'x,y,z'
'x-y,x,z+1/2'
'y,-x+y,z+1/2'
'-y,x-y,z'
'-x+y,-x,z'
'x-y,-y,-z'
'-x,-x+y,-z'
'-x,-y,z+1/2'
'y,x,-z'
'-y,-x,-z+1/2'
'-x+y,y,-z+1/2'
'x,x-y,-z+1/2'
'-x,-y,-z'
'-x+y,-x,-z-1/2'
'-y,x-y,-z-1/2'
'y,-x+y,-z'
'x-y,x,-z'
'-x+y,y,z'
'x,x-y,z'
'x,y,-z-1/2'
'-y,-x,z'
'y,x,z-1/2'
'x-y,-y,z-1/2'
'-x,-x+y,z-1/2'


loop_
_atom_site_label
_atom_site_type_sumbol
_atom_site_fract_x
_atom_site_fract_y
_atom_site_fract_z
_atom_site_occupancy
_atom_site_U_iso_or_equiv
K1 K 0.105 0.210 0.25 0.3333 0.0633
Ca1 Ca 0.0 0.0 0.0 1.0 0.0063
Ca2 Ca 0.33333 0.66667 0.130 1.0 0.0874
Sr1 Sr 0.33333 0.66667 0.9119 0.5 0.0304
Si1 Si 0.4215 0.3313 0.1538 0.5125 0.0138
Si2 Si 0.2476 0.0 0.0 0.5125 0.0046
Al1 Al 0.4215 0.3313 0.1538 0.4875 0.0138
Al2 Al 0.2476 0.0 0.0 0.4875 0.0046
O1 O 0.1127 0.225 0.003 1.0 0.0063
O2 O 0.6818 0.000 0.9158 1.0 0.0152
O3 O 0.958 0.327 0.25 1.0 0.0266
O4 O 0.2295 0.459 0.864 1.0 0.0203
O5 O 0.4590 0.918 0.862 1.0 0.0228
H2O1 O2-(H2O) 0.33333 0.66667 0.75 1.0 0.0633
H2O2 O2-(H2O) 0.413 0.826 0.25 1.0 0.0443
H2O3 O2-(H2O) 0.587 0.174 0.965 0.5 0.0380
H2O4 O2-(H2O) 0.218 0.436 0.159 1.0 0.0456
H2O5 O2-(H2O) 0.0 0.0 0.643 1.0 0.0177




