data_Edingtonite
_cell_length_a         9.537
_cell_length_b         9.651
_cell_length_c         6.509
_cell_angle_alpha     90
_cell_angle_beta      90
_cell_angle_gamma     90


# setting 
# _symmetry_space_group_name_H-M 'P21212'


loop_
_symmetry_equiv_pos_as_xyz
'x,y,z'
'x+1/2,-y+1/2,-z'
'-x+1/2,y+1/2,-z'
'-x,-y,z'


loop_
_atom_site_label
_atom_site_type_sumbol
_atom_site_fract_x
_atom_site_fract_y
_atom_site_fract_z
_atom_site_occupancy
_atom_site_U_iso_or_equiv
BA Ba 0.5 0.0 0.63117 0.974 0.0157
SI1 Si 0.0 0.0 0.01365 1.0 0.0070
SI2 Si -0.17568 0.09407 0.38762 1.0 0.0072
AL1 Al 0.09245 0.17139 0.62657 1.0 0.0053
O1 O 0.17414 0.33126 0.63273 1.0 0.0086
O2 O -0.05301 0.19639 0.46728 1.0 0.0085
O3 O 0.19836 0.03763 0.53741 1.0 0.0099
O4 O 0.03649 0.13362 0.87695 1.0 0.0147
O5 O -0.13505 0.03586 0.15743 1.0 0.0130
H1 H 0.13081 0.26044 0.05620 0.844 0.0384
H2 H 0.23738 0.36941 0.06351 0.844 0.0883
O6 O 0.17627 0.32248 0.14994 0.844 0.0219
H3 H 0.30048 0.08839 0.04942 0.909 0.0846
H4 H 0.41511 0.20440 0.03767 0.909 0.0534
O7 O 0.37851 0.12200 -0.02375 0.909 0.0405




