data_EMC-2_Calcined
_cell_length_a         17.3864
_cell_length_b         17.3864
_cell_length_c         28.3459
_cell_angle_alpha     90
_cell_angle_beta      90
_cell_angle_gamma     120


# setting 
_symmetry_space_group_name_H-M 'P63/mmc'


loop_
_symmetry_equiv_pos_as_xyz
'x,y,z'
'x-y,x,z+1/2'
'y,-x+y,z+1/2'
'-y,x-y,z'
'-x+y,-x,z'
'x-y,-y,-z'
'-x,-x+y,-z'
'-x,-y,z+1/2'
'y,x,-z'
'-y,-x,-z+1/2'
'-x+y,y,-z+1/2'
'x,x-y,-z+1/2'
'-x,-y,-z'
'-x+y,-x,-z-1/2'
'-y,x-y,-z-1/2'
'y,-x+y,-z'
'x-y,x,-z'
'-x+y,y,z'
'x,x-y,z'
'x,y,-z-1/2'
'-y,-x,z'
'y,x,z-1/2'
'x-y,-y,z-1/2'
'-x,-x+y,z-1/2'


loop_
_atom_site_label
_atom_site_type_symbol
_atom_site_fract_x
_atom_site_fract_y
_atom_site_fract_z
_atom_site_occupancy
_atom_site_U_iso_or_equiv
Na2 Na 0.589 0.177 0.047 0.25 0.0320
Na3 Na 0.66667 0.33333 0.627 0.325 0.0320
Na4 Na 0.3571 0.179 0.388 0.333 0.0320
Si1 Si 0.3734 0.0962 0.0167 0.792 0.0110
Si2 Si 0.4275 0.034 0.1069 0.792 0.0110
Si3 Si 0.4874 0.1546 -0.0730 0.792 0.0110
Si4 Si 0.4867 0.1521 0.1961 0.792 0.0110
Al1 Al 0.3734 0.0962 0.0167 0.208 0.0110
Al2 Al 0.4275 0.034 0.1069 0.208 0.0110
Al3 Al 0.4874 0.1546 -0.0730 0.208 0.0110
Al4 Al 0.4867 0.1521 0.1961 0.208 0.0110
O1 O 0.457 0.130 -0.0187 1.0 0.0190
O2 O 0.292 0.0 0.0 1.0 0.0190
O3 O 0.340 0.170 0.018 1.0 0.0190
O4 O 0.403 0.093 0.0713 1.0 0.0190
O5 O 0.425 0.069 0.1601 1.0 0.0190
O6 O 0.356 -0.072 0.1103 1.0 0.0190
O7 O 0.528 0.056 0.094 1.0 0.0190
O8 O 0.478 0.239 -0.092 1.0 0.0190
O9 O 0.594 0.188 -0.074 1.0 0.0190
O10 O 0.472 0.236 0.181 1.0 0.0190
O11 O 0.591 0.1818 0.187 1.0 0.0190
O12 O 0.453 0.117 0.25 1.0 0.0190
H2O1 O2-(H2O) 0.709 0.291 0.080 0.5 0.0320




