data_EU-1_Calcined_Rehydrated
_cell_length_a         13.695
_cell_length_b         22.326
_cell_length_c         20.178
_cell_angle_alpha     90
_cell_angle_beta      90
_cell_angle_gamma     90


# setting 
_symmetry_space_group_name_H-M 'Cmma'


loop_
_symmetry_equiv_pos_as_xyz
'x,y,z'
'x,-y,-z'
'-x+1/2,y,-z'
'-x+1/2,-y,z'
'-x,-y,-z'
'-x,y,z'
'x-1/2,-y,z'
'x-1/2,y,-z'
'x+1/2,y+1/2,z'
'x+1/2,-y+1/2,-z'
'-x+1,y+1/2,-z'
'-x+1,-y+1/2,z'
'-x+1/2,-y+1/2,-z'
'-x+1/2,y+1/2,z'
'x,-y+1/2,z'
'x,y+1/2,-z'


loop_
_atom_site_label
_atom_site_type_symbol
_atom_site_fract_x
_atom_site_fract_y
_atom_site_fract_z
_atom_site_occupancy
_atom_site_U_iso_or_equiv
Si1 Si 0.115 0.2500 0.123 1.0 0.0150
Si2 Si 0.187 0.3703 0.0630 1.0 0.0150
Si3 Si 0.289 0.4315 0.185 1.0 0.0150
Si4 Si 0.0000 0.448 0.053 1.0 0.0150
Si5 Si 0.0000 0.528 0.181 1.0 0.0150
Si6 Si 0.117 0.2500 0.277 1.0 0.0150
Si7 Si 0.191 0.3739 0.308 1.0 0.0150
Si8 Si 0.287 0.4302 0.431 1.0 0.0150
Si9 Si 0.0000 0.450 0.308 1.0 0.0150
Si10 Si 0.0000 0.534 0.432 1.0 0.0150
O1 O 0.0000 0.2500 0.113 1.0 0.0300
O2 O 0.158 0.3068 0.089 1.0 0.0300
O3 O 0.139 0.2500 0.199 1.0 0.0300
O4 O 0.2500 0.363 0.0000 1.0 0.0300
O5 O 0.245 0.405 0.118 1.0 0.0300
O6 O 0.094 0.407 0.044 1.0 0.0300
O7 O 0.2500 0.5000 0.196 1.0 0.0300
O8 O 0.405 0.431 0.176 1.0 0.0300
O9 O 0.260 0.389 0.246 1.0 0.0300
O10 O 0.0000 0.5000 0.0000 1.0 0.0300
O11 O 0.0000 0.477 0.126 1.0 0.0300
O12 O 0.0000 0.497 0.251 1.0 0.0300
O13 O 0.0000 0.2500 0.289 1.0 0.0300
O14 O 0.164 0.3065 0.309 1.0 0.0300
O15 O 0.094 0.409 0.303 1.0 0.0300
O16 O 0.244 0.391 0.374 1.0 0.0300
O17 O 0.2500 0.5000 0.424 1.0 0.0300
O18 O 0.2500 0.403 0.5000 1.0 0.0300
O19 O 0.404 0.425 0.427 1.0 0.0300
O20 O 0.0000 0.485 0.376 1.0 0.0300
O21 O 0.0000 0.5000 0.5000 1.0 0.0300
O51 O 0.2500 0.2000 0.5000 1.01 0.0500
O52 O 0.4000 0.2500 0.3820 1.27 0.0500
O53 O 0.5000 0.1250 0.067 0.53 0.0500
O54 O 0.5000 0.1860 0.2980 0.68 0.0500
O55 O 0.5000 0.2020 0.1760 0.63 0.0500
O56 O 0.0000 0.1830 0.4500 0.4 0.0500




