data_Na-Y_Siliceous
_cell_length_a         24.2576
_cell_length_b         24.2576
_cell_length_c         24.2576
_cell_angle_alpha     90
_cell_angle_beta      90
_cell_angle_gamma     90


# setting 2
_symmetry_space_group_name_H-M 'Fd-3m'


loop_
_symmetry_equiv_pos_as_xyz
'x,y,z'
'x+1/4,-z,y+1/4'
'x+1/4,z+1/4,-y'
'z+1/4,y+1/4,-x'
'-z,y+1/4,x+1/4'
'-y,x+1/4,z+1/4'
'y+1/4,-x,z+1/4'
'z,x,y'
'y,z,x'
'-y+1/4,-z+1/4,x'
'z,-x+1/4,-y+1/4'
'-y+1/4,z,-x+1/4'
'-z+1/4,-x+1/4,y'
'-z+1/4,x,-y+1/4'
'y,-z+1/4,-x+1/4'
'x,-y+1/4,-z+1/4'
'-x+1/4,y,-z+1/4'
'-x+1/4,-y+1/4,z'
'y+1/4,x+1/4,-z'
'-y,-x,-z'
'z+1/4,-y,x+1/4'
'-z,-y,-x'
'-x,z+1/4,y+1/4'
'-x,-z,-y'
'-x,-y,-z'
'-x-1/4,z,-y-1/4'
'-x-1/4,-z-1/4,y'
'-z-1/4,-y-1/4,x'
'z,-y-1/4,-x-1/4'
'y,-x-1/4,-z-1/4'
'-y-1/4,x,-z-1/4'
'-z,-x,-y'
'-y,-z,-x'
'y-1/4,z-1/4,-x'
'-z,x-1/4,y-1/4'
'y-1/4,-z,x-1/4'
'z-1/4,x-1/4,-y'
'z-1/4,-x,y-1/4'
'-y,z-1/4,x-1/4'
'-x,y-1/4,z-1/4'
'x-1/4,-y,z-1/4'
'x-1/4,y-1/4,-z'
'-y-1/4,-x-1/4,z'
'y,x,z'
'-z-1/4,y,-x-1/4'
'z,y,x'
'x,-z-1/4,-y-1/4'
'x,z,y'
'x,y+1/2,z+1/2'
'x+1/4,-z+1/2,y+3/4'
'x+1/4,z+3/4,-y+1/2'
'z+1/4,y+3/4,-x+1/2'
'-z,y+3/4,x+3/4'
'-y,x+3/4,z+3/4'
'y+1/4,-x+1/2,z+3/4'
'z,x+1/2,y+1/2'
'y,z+1/2,x+1/2'
'-y+1/4,-z+3/4,x+1/2'
'z,-x+3/4,-y+3/4'
'-y+1/4,z+1/2,-x+3/4'
'-z+1/4,-x+3/4,y+1/2'
'-z+1/4,x+1/2,-y+3/4'
'y,-z+3/4,-x+3/4'
'x,-y+3/4,-z+3/4'
'-x+1/4,y+1/2,-z+3/4'
'-x+1/4,-y+3/4,z+1/2'
'y+1/4,x+3/4,-z+1/2'
'-y,-x+1/2,-z+1/2'
'z+1/4,-y+1/2,x+3/4'
'-z,-y+1/2,-x+1/2'
'-x,z+3/4,y+3/4'
'-x,-z+1/2,-y+1/2'
'-x,-y+1/2,-z+1/2'
'-x-1/4,z+1/2,-y+1/4'
'-x-1/4,-z+1/4,y+1/2'
'-z-1/4,-y+1/4,x+1/2'
'z,-y+1/4,-x+1/4'
'y,-x+1/4,-z+1/4'
'-y-1/4,x+1/2,-z+1/4'
'-z,-x+1/2,-y+1/2'
'-y,-z+1/2,-x+1/2'
'y-1/4,z+1/4,-x+1/2'
'-z,x+1/4,y+1/4'
'y-1/4,-z+1/2,x+1/4'
'z-1/4,x+1/4,-y+1/2'
'z-1/4,-x+1/2,y+1/4'
'-y,z+1/4,x+1/4'
'-x,y+1/4,z+1/4'
'x-1/4,-y+1/2,z+1/4'
'x-1/4,y+1/4,-z+1/2'
'-y-1/4,-x+1/4,z+1/2'
'y,x+1/2,z+1/2'
'-z-1/4,y+1/2,-x+1/4'
'z,y+1/2,x+1/2'
'x,-z+1/4,-y+1/4'
'x,z+1/2,y+1/2'
'x+1/2,y,z+1/2'
'x+3/4,-z,y+3/4'
'x+3/4,z+1/4,-y+1/2'
'z+3/4,y+1/4,-x+1/2'
'-z+1/2,y+1/4,x+3/4'
'-y+1/2,x+1/4,z+3/4'
'y+3/4,-x,z+3/4'
'z+1/2,x,y+1/2'
'y+1/2,z,x+1/2'
'-y+3/4,-z+1/4,x+1/2'
'z+1/2,-x+1/4,-y+3/4'
'-y+3/4,z,-x+3/4'
'-z+3/4,-x+1/4,y+1/2'
'-z+3/4,x,-y+3/4'
'y+1/2,-z+1/4,-x+3/4'
'x+1/2,-y+1/4,-z+3/4'
'-x+3/4,y,-z+3/4'
'-x+3/4,-y+1/4,z+1/2'
'y+3/4,x+1/4,-z+1/2'
'-y+1/2,-x,-z+1/2'
'z+3/4,-y,x+3/4'
'-z+1/2,-y,-x+1/2'
'-x+1/2,z+1/4,y+3/4'
'-x+1/2,-z,-y+1/2'
'-x+1/2,-y,-z+1/2'
'-x+1/4,z,-y+1/4'
'-x+1/4,-z-1/4,y+1/2'
'-z+1/4,-y-1/4,x+1/2'
'z+1/2,-y-1/4,-x+1/4'
'y+1/2,-x-1/4,-z+1/4'
'-y+1/4,x,-z+1/4'
'-z+1/2,-x,-y+1/2'
'-y+1/2,-z,-x+1/2'
'y+1/4,z-1/4,-x+1/2'
'-z+1/2,x-1/4,y+1/4'
'y+1/4,-z,x+1/4'
'z+1/4,x-1/4,-y+1/2'
'z+1/4,-x,y+1/4'
'-y+1/2,z-1/4,x+1/4'
'-x+1/2,y-1/4,z+1/4'
'x+1/4,-y,z+1/4'
'x+1/4,y-1/4,-z+1/2'
'-y+1/4,-x-1/4,z+1/2'
'y+1/2,x,z+1/2'
'-z+1/4,y,-x+1/4'
'z+1/2,y,x+1/2'
'x+1/2,-z-1/4,-y+1/4'
'x+1/2,z,y+1/2'
'x+1/2,y+1/2,z'
'x+3/4,-z+1/2,y+1/4'
'x+3/4,z+3/4,-y'
'z+3/4,y+3/4,-x'
'-z+1/2,y+3/4,x+1/4'
'-y+1/2,x+3/4,z+1/4'
'y+3/4,-x+1/2,z+1/4'
'z+1/2,x+1/2,y'
'y+1/2,z+1/2,x'
'-y+3/4,-z+3/4,x'
'z+1/2,-x+3/4,-y+1/4'
'-y+3/4,z+1/2,-x+1/4'
'-z+3/4,-x+3/4,y'
'-z+3/4,x+1/2,-y+1/4'
'y+1/2,-z+3/4,-x+1/4'
'x+1/2,-y+3/4,-z+1/4'
'-x+3/4,y+1/2,-z+1/4'
'-x+3/4,-y+3/4,z'
'y+3/4,x+3/4,-z'
'-y+1/2,-x+1/2,-z'
'z+3/4,-y+1/2,x+1/4'
'-z+1/2,-y+1/2,-x'
'-x+1/2,z+3/4,y+1/4'
'-x+1/2,-z+1/2,-y'
'-x+1/2,-y+1/2,-z'
'-x+1/4,z+1/2,-y-1/4'
'-x+1/4,-z+1/4,y'
'-z+1/4,-y+1/4,x'
'z+1/2,-y+1/4,-x-1/4'
'y+1/2,-x+1/4,-z-1/4'
'-y+1/4,x+1/2,-z-1/4'
'-z+1/2,-x+1/2,-y'
'-y+1/2,-z+1/2,-x'
'y+1/4,z+1/4,-x'
'-z+1/2,x+1/4,y-1/4'
'y+1/4,-z+1/2,x-1/4'
'z+1/4,x+1/4,-y'
'z+1/4,-x+1/2,y-1/4'
'-y+1/2,z+1/4,x-1/4'
'-x+1/2,y+1/4,z-1/4'
'x+1/4,-y+1/2,z-1/4'
'x+1/4,y+1/4,-z'
'-y+1/4,-x+1/4,z'
'y+1/2,x+1/2,z'
'-z+1/4,y+1/2,-x-1/4'
'z+1/2,y+1/2,x'
'x+1/2,-z+1/4,-y-1/4'
'x+1/2,z+1/2,y'


loop_
_atom_site_label
_atom_site_type_symbol
_atom_site_fract_x
_atom_site_fract_y
_atom_site_fract_z
_atom_site_occupancy
_atom_site_U_iso_or_equiv
SI Si -0.05392 0.12530 0.03589 0.98 0.0047
O1 O 0.0 -0.10623 0.10623 1.0 0.0147
O2 O -0.00323 -0.00323 0.14066 1.0 0.0180
O3 O 0.07570 0.07570 -0.03577 1.0 0.0168
O4 O 0.07063 0.07063 0.32115 1.0 0.0094




