data_Na-X_Dehydrated
_cell_length_a         25.099
_cell_length_b         25.099
_cell_length_c         25.099
_cell_angle_alpha     90
_cell_angle_beta      90
_cell_angle_gamma     90


# setting 2
_symmetry_space_group_name_H-M 'Fd-3'


loop_
_symmetry_equiv_pos_as_xyz
'x,y,z'
'z,x,y'
'y,z,x'
'-y+1/4,-z+1/4,x'
'z,-x+1/4,-y+1/4'
'-y+1/4,z,-x+1/4'
'-z+1/4,-x+1/4,y'
'-z+1/4,x,-y+1/4'
'y,-z+1/4,-x+1/4'
'x,-y+1/4,-z+1/4'
'-x+1/4,y,-z+1/4'
'-x+1/4,-y+1/4,z'
'-x,-y,-z'
'-z,-x,-y'
'-y,-z,-x'
'y-1/4,z-1/4,-x'
'-z,x-1/4,y-1/4'
'y-1/4,-z,x-1/4'
'z-1/4,x-1/4,-y'
'z-1/4,-x,y-1/4'
'-y,z-1/4,x-1/4'
'-x,y-1/4,z-1/4'
'x-1/4,-y,z-1/4'
'x-1/4,y-1/4,-z'
'x,y+1/2,z+1/2'
'z,x+1/2,y+1/2'
'y,z+1/2,x+1/2'
'-y+1/4,-z+3/4,x+1/2'
'z,-x+3/4,-y+3/4'
'-y+1/4,z+1/2,-x+3/4'
'-z+1/4,-x+3/4,y+1/2'
'-z+1/4,x+1/2,-y+3/4'
'y,-z+3/4,-x+3/4'
'x,-y+3/4,-z+3/4'
'-x+1/4,y+1/2,-z+3/4'
'-x+1/4,-y+3/4,z+1/2'
'-x,-y+1/2,-z+1/2'
'-z,-x+1/2,-y+1/2'
'-y,-z+1/2,-x+1/2'
'y-1/4,z+1/4,-x+1/2'
'-z,x+1/4,y+1/4'
'y-1/4,-z+1/2,x+1/4'
'z-1/4,x+1/4,-y+1/2'
'z-1/4,-x+1/2,y+1/4'
'-y,z+1/4,x+1/4'
'-x,y+1/4,z+1/4'
'x-1/4,-y+1/2,z+1/4'
'x-1/4,y+1/4,-z+1/2'
'x+1/2,y,z+1/2'
'z+1/2,x,y+1/2'
'y+1/2,z,x+1/2'
'-y+3/4,-z+1/4,x+1/2'
'z+1/2,-x+1/4,-y+3/4'
'-y+3/4,z,-x+3/4'
'-z+3/4,-x+1/4,y+1/2'
'-z+3/4,x,-y+3/4'
'y+1/2,-z+1/4,-x+3/4'
'x+1/2,-y+1/4,-z+3/4'
'-x+3/4,y,-z+3/4'
'-x+3/4,-y+1/4,z+1/2'
'-x+1/2,-y,-z+1/2'
'-z+1/2,-x,-y+1/2'
'-y+1/2,-z,-x+1/2'
'y+1/4,z-1/4,-x+1/2'
'-z+1/2,x-1/4,y+1/4'
'y+1/4,-z,x+1/4'
'z+1/4,x-1/4,-y+1/2'
'z+1/4,-x,y+1/4'
'-y+1/2,z-1/4,x+1/4'
'-x+1/2,y-1/4,z+1/4'
'x+1/4,-y,z+1/4'
'x+1/4,y-1/4,-z+1/2'
'x+1/2,y+1/2,z'
'z+1/2,x+1/2,y'
'y+1/2,z+1/2,x'
'-y+3/4,-z+3/4,x'
'z+1/2,-x+3/4,-y+1/4'
'-y+3/4,z+1/2,-x+1/4'
'-z+3/4,-x+3/4,y'
'-z+3/4,x+1/2,-y+1/4'
'y+1/2,-z+3/4,-x+1/4'
'x+1/2,-y+3/4,-z+1/4'
'-x+3/4,y+1/2,-z+1/4'
'-x+3/4,-y+3/4,z'
'-x+1/2,-y+1/2,-z'
'-z+1/2,-x+1/2,-y'
'-y+1/2,-z+1/2,-x'
'y+1/4,z+1/4,-x'
'-z+1/2,x+1/4,y-1/4'
'y+1/4,-z+1/2,x-1/4'
'z+1/4,x+1/4,-y'
'z+1/4,-x+1/2,y-1/4'
'-y+1/2,z+1/4,x-1/4'
'-x+1/2,y+1/4,z-1/4'
'x+1/4,-y+1/2,z-1/4'
'x+1/4,y+1/4,-z'


loop_
_atom_site_label
_atom_site_type_symbol
_atom_site_fract_x
_atom_site_fract_y
_atom_site_fract_z
_atom_site_occupancy
_atom_site_U_iso_or_equiv
Na1 Na 0.0 0.0 0.0 0.18 0.0403
Na2 Na 0.0454 0.0454 0.0454 0.66 0.0110
Na3 Na 0.056 0.056 0.056 0.25 0.0160
Na4 Na 0.2292 0.2292 0.2292 0.97 0.0320
Na5 Na 0.423 0.326 0.158 0.11 0.0294
Na6 Na 0.432 0.280 0.164 0.11 0.0213
Na61 Na 0.465 0.317 0.158 0.09 0.0213
Si1 Si -0.05381 0.12565 0.03508 1.0 0.0179
Si2 Si -0.05524 0.03639 0.12418 0.08 0.0185
Al2 Al -0.05524 0.03639 0.12418 0.92 0.0185
O1 O -0.1099 0.0003 0.1056 1.0 0.0313
O2 O -0.0011 -0.0028 0.1416 1.0 0.0310
O3 O -0.0346 0.0758 0.0711 1.0 0.0331
O4 O -0.0693 0.0726 0.1800 1.0 0.0300




