data_Faujasite
_cell_length_a         24.74
_cell_length_b         24.74
_cell_length_c         24.74
_cell_angle_alpha     90
_cell_angle_beta      90
_cell_angle_gamma     90


# setting 2
_symmetry_space_group_name_H-M 'Fd-3m'


loop_
_symmetry_equiv_pos_as_xyz
'x,y,z'
'x+1/4,-z,y+1/4'
'x+1/4,z+1/4,-y'
'z+1/4,y+1/4,-x'
'-z,y+1/4,x+1/4'
'-y,x+1/4,z+1/4'
'y+1/4,-x,z+1/4'
'z,x,y'
'y,z,x'
'-y+1/4,-z+1/4,x'
'z,-x+1/4,-y+1/4'
'-y+1/4,z,-x+1/4'
'-z+1/4,-x+1/4,y'
'-z+1/4,x,-y+1/4'
'y,-z+1/4,-x+1/4'
'x,-y+1/4,-z+1/4'
'-x+1/4,y,-z+1/4'
'-x+1/4,-y+1/4,z'
'y+1/4,x+1/4,-z'
'-y,-x,-z'
'z+1/4,-y,x+1/4'
'-z,-y,-x'
'-x,z+1/4,y+1/4'
'-x,-z,-y'
'-x,-y,-z'
'-x-1/4,z,-y-1/4'
'-x-1/4,-z-1/4,y'
'-z-1/4,-y-1/4,x'
'z,-y-1/4,-x-1/4'
'y,-x-1/4,-z-1/4'
'-y-1/4,x,-z-1/4'
'-z,-x,-y'
'-y,-z,-x'
'y-1/4,z-1/4,-x'
'-z,x-1/4,y-1/4'
'y-1/4,-z,x-1/4'
'z-1/4,x-1/4,-y'
'z-1/4,-x,y-1/4'
'-y,z-1/4,x-1/4'
'-x,y-1/4,z-1/4'
'x-1/4,-y,z-1/4'
'x-1/4,y-1/4,-z'
'-y-1/4,-x-1/4,z'
'y,x,z'
'-z-1/4,y,-x-1/4'
'z,y,x'
'x,-z-1/4,-y-1/4'
'x,z,y'
'x,y+1/2,z+1/2'
'x+1/4,-z+1/2,y+3/4'
'x+1/4,z+3/4,-y+1/2'
'z+1/4,y+3/4,-x+1/2'
'-z,y+3/4,x+3/4'
'-y,x+3/4,z+3/4'
'y+1/4,-x+1/2,z+3/4'
'z,x+1/2,y+1/2'
'y,z+1/2,x+1/2'
'-y+1/4,-z+3/4,x+1/2'
'z,-x+3/4,-y+3/4'
'-y+1/4,z+1/2,-x+3/4'
'-z+1/4,-x+3/4,y+1/2'
'-z+1/4,x+1/2,-y+3/4'
'y,-z+3/4,-x+3/4'
'x,-y+3/4,-z+3/4'
'-x+1/4,y+1/2,-z+3/4'
'-x+1/4,-y+3/4,z+1/2'
'y+1/4,x+3/4,-z+1/2'
'-y,-x+1/2,-z+1/2'
'z+1/4,-y+1/2,x+3/4'
'-z,-y+1/2,-x+1/2'
'-x,z+3/4,y+3/4'
'-x,-z+1/2,-y+1/2'
'-x,-y+1/2,-z+1/2'
'-x-1/4,z+1/2,-y+1/4'
'-x-1/4,-z+1/4,y+1/2'
'-z-1/4,-y+1/4,x+1/2'
'z,-y+1/4,-x+1/4'
'y,-x+1/4,-z+1/4'
'-y-1/4,x+1/2,-z+1/4'
'-z,-x+1/2,-y+1/2'
'-y,-z+1/2,-x+1/2'
'y-1/4,z+1/4,-x+1/2'
'-z,x+1/4,y+1/4'
'y-1/4,-z+1/2,x+1/4'
'z-1/4,x+1/4,-y+1/2'
'z-1/4,-x+1/2,y+1/4'
'-y,z+1/4,x+1/4'
'-x,y+1/4,z+1/4'
'x-1/4,-y+1/2,z+1/4'
'x-1/4,y+1/4,-z+1/2'
'-y-1/4,-x+1/4,z+1/2'
'y,x+1/2,z+1/2'
'-z-1/4,y+1/2,-x+1/4'
'z,y+1/2,x+1/2'
'x,-z+1/4,-y+1/4'
'x,z+1/2,y+1/2'
'x+1/2,y,z+1/2'
'x+3/4,-z,y+3/4'
'x+3/4,z+1/4,-y+1/2'
'z+3/4,y+1/4,-x+1/2'
'-z+1/2,y+1/4,x+3/4'
'-y+1/2,x+1/4,z+3/4'
'y+3/4,-x,z+3/4'
'z+1/2,x,y+1/2'
'y+1/2,z,x+1/2'
'-y+3/4,-z+1/4,x+1/2'
'z+1/2,-x+1/4,-y+3/4'
'-y+3/4,z,-x+3/4'
'-z+3/4,-x+1/4,y+1/2'
'-z+3/4,x,-y+3/4'
'y+1/2,-z+1/4,-x+3/4'
'x+1/2,-y+1/4,-z+3/4'
'-x+3/4,y,-z+3/4'
'-x+3/4,-y+1/4,z+1/2'
'y+3/4,x+1/4,-z+1/2'
'-y+1/2,-x,-z+1/2'
'z+3/4,-y,x+3/4'
'-z+1/2,-y,-x+1/2'
'-x+1/2,z+1/4,y+3/4'
'-x+1/2,-z,-y+1/2'
'-x+1/2,-y,-z+1/2'
'-x+1/4,z,-y+1/4'
'-x+1/4,-z-1/4,y+1/2'
'-z+1/4,-y-1/4,x+1/2'
'z+1/2,-y-1/4,-x+1/4'
'y+1/2,-x-1/4,-z+1/4'
'-y+1/4,x,-z+1/4'
'-z+1/2,-x,-y+1/2'
'-y+1/2,-z,-x+1/2'
'y+1/4,z-1/4,-x+1/2'
'-z+1/2,x-1/4,y+1/4'
'y+1/4,-z,x+1/4'
'z+1/4,x-1/4,-y+1/2'
'z+1/4,-x,y+1/4'
'-y+1/2,z-1/4,x+1/4'
'-x+1/2,y-1/4,z+1/4'
'x+1/4,-y,z+1/4'
'x+1/4,y-1/4,-z+1/2'
'-y+1/4,-x-1/4,z+1/2'
'y+1/2,x,z+1/2'
'-z+1/4,y,-x+1/4'
'z+1/2,y,x+1/2'
'x+1/2,-z-1/4,-y+1/4'
'x+1/2,z,y+1/2'
'x+1/2,y+1/2,z'
'x+3/4,-z+1/2,y+1/4'
'x+3/4,z+3/4,-y'
'z+3/4,y+3/4,-x'
'-z+1/2,y+3/4,x+1/4'
'-y+1/2,x+3/4,z+1/4'
'y+3/4,-x+1/2,z+1/4'
'z+1/2,x+1/2,y'
'y+1/2,z+1/2,x'
'-y+3/4,-z+3/4,x'
'z+1/2,-x+3/4,-y+1/4'
'-y+3/4,z+1/2,-x+1/4'
'-z+3/4,-x+3/4,y'
'-z+3/4,x+1/2,-y+1/4'
'y+1/2,-z+3/4,-x+1/4'
'x+1/2,-y+3/4,-z+1/4'
'-x+3/4,y+1/2,-z+1/4'
'-x+3/4,-y+3/4,z'
'y+3/4,x+3/4,-z'
'-y+1/2,-x+1/2,-z'
'z+3/4,-y+1/2,x+1/4'
'-z+1/2,-y+1/2,-x'
'-x+1/2,z+3/4,y+1/4'
'-x+1/2,-z+1/2,-y'
'-x+1/2,-y+1/2,-z'
'-x+1/4,z+1/2,-y-1/4'
'-x+1/4,-z+1/4,y'
'-z+1/4,-y+1/4,x'
'z+1/2,-y+1/4,-x-1/4'
'y+1/2,-x+1/4,-z-1/4'
'-y+1/4,x+1/2,-z-1/4'
'-z+1/2,-x+1/2,-y'
'-y+1/2,-z+1/2,-x'
'y+1/4,z+1/4,-x'
'-z+1/2,x+1/4,y-1/4'
'y+1/4,-z+1/2,x-1/4'
'z+1/4,x+1/4,-y'
'z+1/4,-x+1/2,y-1/4'
'-y+1/2,z+1/4,x-1/4'
'-x+1/2,y+1/4,z-1/4'
'x+1/4,-y+1/2,z-1/4'
'x+1/4,y+1/4,-z'
'-y+1/4,-x+1/4,z'
'y+1/2,x+1/2,z'
'-z+1/4,y+1/2,-x-1/4'
'z+1/2,y+1/2,x'
'x+1/2,-z+1/4,-y-1/4'
'x+1/2,z+1/2,y'


loop_
_atom_site_label
_atom_site_type_symbol
_atom_site_fract_x
_atom_site_fract_y
_atom_site_fract_z
_atom_site_occupancy
_atom_site_U_iso_or_equiv
NA1 Na 0.0699 0.0699 0.0699 0.162 0.0329
CA1 Ca 0.0699 0.0699 0.0699 0.078 0.0329
SI1 Si 0.12544 0.94655 0.03626 0.7 0.0152
AL1 Al 0.12544 0.94655 0.03626 0.3 0.0152
O1 O 0.1742 0.1742 0.9680 1.0 0.0355
O2 O 0.1773 0.1773 0.3232 1.0 0.0317
O3 O 0.2527 0.2527 0.1435 1.0 0.0317
O4 O 0.1053 0.8947 0.0 1.0 0.0355
H2O1 O2-(H2O) 0.1673 0.1673 0.1673 0.42 0.0405
H2O2 O2-(H2O) 0.272 0.272 0.272 0.42 0.0494




