data_Ferrierite
_cell_length_a         19.156
_cell_length_b         14.127
_cell_length_c         7.489
_cell_angle_alpha     90
_cell_angle_beta      90
_cell_angle_gamma     90


# setting 
_symmetry_space_group_name_H-M 'Immm'


loop_
_symmetry_equiv_pos_as_xyz
'x,y,z'
'x,-y,-z'
'-x,y,-z'
'-x,-y,z'
'-x,-y,-z'
'-x,y,z'
'x,-y,z'
'x,y,-z'
'x+1/2,y+1/2,z+1/2'
'x+1/2,-y+1/2,-z+1/2'
'-x+1/2,y+1/2,-z+1/2'
'-x+1/2,-y+1/2,z+1/2'
'-x+1/2,-y+1/2,-z+1/2'
'-x+1/2,y+1/2,z+1/2'
'x+1/2,-y+1/2,z+1/2'
'x+1/2,y+1/2,-z+1/2'


loop_
_atom_site_label
_atom_site_type_symbol
_atom_site_fract_x
_atom_site_fract_y
_atom_site_fract_z
_atom_site_occupancy
_atom_site_U_iso_or_equiv
NA Na 0.4285 0.0 0.0 0.24 0.0380
MG Mg 0.0 0.0 0.500 1.0 0.0417
SI1 Si 0.1548 0.0 0.0 0.84 0.0220
SI2 Si 0.0841 0.2024 0.0 0.84 0.0196
SI3 Si 0.2727 0.0 0.2905 0.84 0.0253
SI4 Si 0.3232 0.2019 0.2067 0.84 0.0263
AL1 Al 0.1548 0.0 0.0 0.16 0.0220
AL2 Al 0.0841 0.2024 0.0 0.16 0.0196
AL3 Al 0.2727 0.0 0.2905 0.16 0.0253
AL4 Al 0.3232 0.2019 0.2067 0.16 0.0263
O1 O 0.0 0.2131 0.0 1.0 0.0486
O2 O 0.2528 0.0 0.5000 1.0 0.0476
O3 O 0.1025 0.0882 0.0 1.0 0.0713
O4 O 0.2039 0.0 0.1776 1.0 0.0660
O5 O 0.2500 0.2500 0.2500 1.0 0.0570
O6 O 0.1610 0.2833 0.5000 1.0 0.0484
O7 O 0.1155 0.2497 0.1796 1.0 0.0560
O8 O 0.3202 0.0907 0.2459 1.0 0.0480
H2O1 O2-(H2O) 0.0 0.0 0.2389 1.0 0.0464
H2O2 O2-(H2O) 0.0912 0.0691 0.5000 0.5 0.0954
H2O3 O2-(H2O) 0.0347 0.1403 0.5000 0.5 0.1166




