data_Franzinite
_cell_length_a        12.916
_cell_length_b        12.916
_cell_length_c        26.543
_cell_angle_alpha    90
_cell_angle_beta     90
_cell_angle_gamma    120


# setting 
_symmetry_space_group_name_H-M 'P321'


loop_
_symmetry_equiv_pos_as_xyz
'x,y,z'
'-y,x-y,z'
'-x+y,-x,z'
'x-y,-y,-z'
'-x,-x+y,-z'
'y,x,-z'


loop_
_atom_site_label
_atom_site_type_symbol
_atom_site_fract_x
_atom_site_fract_y
_atom_site_fract_z
_atom_site_occupancy
_atom_site_U_iso_or_equiv
Si1 Si 0.5834 0.6684 0.9018 1.0 0.0158
Al1 Al 0.4190 0.3332 0.0978 1.0 0.0136
Al2 Al 0.5866 0.6658 0.1963 1.0 0.0190
Si2 Si 0.4158 0.3323 0.8038 1.0 0.0122
Al3 Al 0.5927 0.6770 0.6028 1.0 0.0120
Si3 Si 0.4162 0.3365 0.3964 1.0 0.0139
Al4 Al 0.7511 0.7511 0.0000 1.0 0.0180
Si4 Si 0.2472 0.2472 0.0000 1.0 0.0130
Si5 Si 0.7486 0.7495 0.2976 1.0 0.0130
Al5 Al 0.2540 0.2515 0.7026 1.0 0.0149
Si6 Si 0.7485 0.7485 0.5000 1.0 0.0141
Al6 Al 0.2544 0.2544 0.5000 1.0 0.0120
O1 O 0.4462 0.2180 0.1051 1.0 0.0650
O2 O 0.8750 0.7478 0.2876 1.0 0.0280
O3 O 0.2425 0.1159 0.5098 1.0 0.0250
O4 O 0.3220 0.0005 0.3468 1.0 0.0280
O5 O 0.6710 0.0020 0.6482 1.0 0.0250
O6 O 0.6590 0.6760 0.5470 1.0 0.0220
O7 O 0.3530 0.3302 0.4504 1.0 0.0220
O8 O 0.6690 0.6500 0.1495 1.0 0.0490
O9 O 0.3480 0.3510 0.8495 1.0 0.0600
O10 O 0.4501 0.2340 0.3901 1.0 0.0220
O11 O 0.6660 0.6860 0.9481 1.0 0.0719
O12 O 0.3270 0.3070 0.0468 1.0 0.0840
O13 O 0.4420 0.5490 0.1995 1.0 0.0350
O14 O 0.5410 0.0786 0.3940 1.0 0.0260
O15 O 0.6560 0.6730 0.2534 1.0 0.0270
O16 O 0.3440 0.3200 0.7537 1.0 0.0529
O17 O 0.8880 0.7821 0.6994 1.0 0.0300
O18 O 0.4275 0.2200 0.8161 1.0 0.0370
O19 O 0.9157 0.4540 0.0863 1.0 0.0650
O20 O 0.1200 0.2330 0.0106 1.0 0.0740
S1 S 0.3730 0.6760 0.0546 1.0 0.0640
S2 S 0.3430 0.7060 0.7415 1.0 0.0780
S3 S 0.0250 0.0230 0.1561 1.0 0.0800
S4 S 0.3333 0.6667 0.3199 1.0 0.0293
S5 S 0.3333 0.6667 0.4884 1.0 0.0241
H2O1 O2-(H2O) 0.0090 0.0390 0.6040 1.0 0.1101
Ca1 Ca 0.5030 0.5030 0.0000 0.42 0.0470
Ca2 Ca 0.7815 0.5649 0.5960 0.91 0.0289
Ca3 Ca 0.4909 0.5140 0.3017 0.66 0.0396
Ca31 Ca 0.0000 0.0000 0.7477 0.18 0.0339
Ca32 Ca 0.0000 0.0000 0.7009 0.22 0.0339
Ca4 Ca 0.5015 0.5015 0.5000 0.81 0.0284
Ca41 Ca 0.0000 0.0000 0.0000 0.07 0.0600
Ca5 Ca 0.8490 0.6967 0.8973 0.29 0.0410
Ca6 Ca 0.8340 0.6655 0.2001 0.33 0.0339
Ca61 Ca 0.7720 0.5560 0.2169 0.15 0.0339
Ca1 Ca 0.5030 0.5030 0.0000 0.42 0.0470
Ca11 Ca 0.4500 0.5440 0.0150 0.14 0.0470
Ca2 Ca 0.7815 0.5649 0.5960 0.91 0.0289
Ca3 Ca 0.4909 0.5140 0.3017 0.66 0.0396
Ca4 Ca 0.5015 0.5015 0.5000 0.81 0.0284
Ca5 Ca 0.8490 0.6967 0.8973 0.29 0.0410
Ca51 Ca 0.8060 0.5860 0.9164 0.12 0.0410
Ca52 Ca 0.8730 0.7600 0.8870 0.15 0.0410
Ca53 Ca 0.8290 0.6500 0.9030 0.11 0.0410
Ca6 Ca 0.8340 0.6655 0.2001 0.33 0.0339
Ca61 Ca 0.7720 0.5560 0.2169 0.15 0.0339
Ca62 Ca 0.8730 0.7260 0.1849 0.13 0.0339
Ca63 Ca 0.7950 0.6050 0.2139 0.12 0.0339
O21 O 0.6170 0.3200 0.9054 1.0 0.1199
O22 O 0.3750 0.6030 0.0207 1.0 0.1600
O23 O 0.4880 0.7360 0.0760 1.0 0.1600
O24 O 0.4010 0.7860 0.7078 1.0 0.1001
O25 O 0.7300 0.4700 0.2250 1.0 0.0700
O26 O 0.7280 0.3990 0.2290 1.0 0.1199
O27 O 0.0460 0.1260 0.1310 1.0 0.0800
O28 O 0.1130 0.0780 0.1840 1.0 0.1800
O29 O 0.0450 0.0420 0.1130 1.0 0.1299
O30 O 0.3333 0.6667 0.2650 1.0 0.0930
O31 O 0.3960 0.7890 0.3390 1.0 0.0529
O32 O 0.3333 0.6667 0.5433 1.0 0.0580
O33 O 0.3970 0.7910 0.4698 1.0 0.0420




