data_Gismondine
_cell_length_a         9.843
_cell_length_b         10.023
_cell_length_c         10.616
_cell_angle_alpha     90
_cell_angle_beta      90
_cell_angle_gamma     92.417


# setting 
_symmetry_space_group_name_H-M 'P1121/a'


loop_
_symmetry_equiv_pos_as_xyz
'x,y,z'
'-x+1/2,-y,z+1/2'
'-x,-y,-z'
'x-1/2,y,-z-1/2'


loop_
_atom_site_label
_atom_site_type_symbol
_atom_site_fract_x
_atom_site_fract_y
_atom_site_fract_z
_atom_site_occupancy
_atom_site_U_iso_or_equiv
CA Ca 0.3537 0.7192 0.0764 0.92 0.0176
SI1 Si 0.18142 0.4147 0.11288 1.0 0.0070
SI2 Si 0.16038 0.9082 0.87012 1.0 0.0061
SI3 Si 0.16921 0.09656 0.11329 0.2 0.0041
AL1 Al 0.16921 0.09656 0.11329 0.8 0.0041
AL2 Al 0.149 0.59053 0.8669 1.0 0.0066
O1 O 0.9996 0.0787 0.1562 1.0 0.0220
O2 O 0.2125 0.2624 0.0763 1.0 0.0234
O3 O 0.0254 0.4361 0.1485 1.0 0.0125
O4 O 0.3037 0.245 0.4027 1.0 0.0187
O5 O 0.2136 0.9994 0.9861 1.0 0.0108
O6 O 0.2595 0.0449 0.2437 1.0 0.0104
O7 O 0.2777 0.4645 0.2288 1.0 0.0115
O8 O 0.2253 0.5107 0.9944 1.0 0.0153
H2O1 O2-(H2O) 0.5023 0.2596 0.1048 0.88 0.0281
H2O2 O2-(H2O) 0.5410 0.5914 0.1262 1.0 0.0458
H2O3 O2-(H2O) 0.5020 0.9113 0.1174 0.95 0.0270
H2O4 O2-(H2O) 0.2306 0.7732 0.2369 0.61 0.0978
H2O5 O2-(H2O) 0.4028 0.7407 0.3180 0.48 0.0521
H2O6 O2-(H2O) 0.1326 0.7620 0.1794 0.4 0.2185




