data_Garronite
_cell_length_a         9.9266
_cell_length_b         9.9266
_cell_length_c         10.3031
_cell_angle_alpha     90
_cell_angle_beta      90
_cell_angle_gamma     90


# setting 
_symmetry_space_group_name_H-M 'I-4m2'


loop_
_symmetry_equiv_pos_as_xyz
'x,y,z'
'y,-x,-z'
'-y,x,-z'
'-x,-y,z'
'y,x,-z'
'-y,-x,-z'
'-x,y,z'
'x,-y,z'
'x+1/2,y+1/2,z+1/2'
'y+1/2,-x+1/2,-z+1/2'
'-y+1/2,x+1/2,-z+1/2'
'-x+1/2,-y+1/2,z+1/2'
'y+1/2,x+1/2,-z+1/2'
'-y+1/2,-x+1/2,-z+1/2'
'-x+1/2,y+1/2,z+1/2'
'x+1/2,-y+1/2,z+1/2'


loop_
_atom_site_label
_atom_site_type_symbol
_atom_site_fract_x
_atom_site_fract_y
_atom_site_fract_z
_atom_site_occupancy
_atom_site_U_iso_or_equiv
NA1 Na 0.0 0.281 0.223 0.10 0.0800
CA1 Ca 0.0 0.352 0.094 0.197 0.1101
CA2 Ca 0.0 0.238 0.107 0.155 0.1101
SI1 Si 0.1607 0.1607 0.5 0.65 0.0390
SI2 Si 0.3421 0.1579 0.25 0.65 0.0510
AL1 Al 0.1607 0.1607 0.5 0.35 0.0390
AL2 Al 0.3421 0.1579 0.25 0.35 0.0510
O11 O 0.1746 0.0 0.5351 1.0 0.0339
O12 O 0.3078 0.0 0.2192 1.0 0.0320
O2 O 0.2922 0.2488 0.1244 1.0 0.0850
H2O1 O2-(H2O) 0.0 0.0 0.159 1.0 0.1170
H2O21 O2-(H2O) 0.105 0.395 0.25 0.14 0.0260
H2O22 O2-(H2O) 0.161 0.433 0.234 0.24 0.0260
H2O3 O2-(H2O) 0.0 0.173 0.981 0.39 0.2100




