data_Gobbinsite
_cell_length_a         10.108
_cell_length_b         9.766
_cell_length_c         10.171
_cell_angle_alpha     90
_cell_angle_beta      90
_cell_angle_gamma     90


# setting 
_symmetry_space_group_name_H-M 'Pmn21'


loop_
_symmetry_equiv_pos_as_xyz
'x,y,z'
'-x+1/2,-y,z+1/2'
'-x,y,z'
'x+1/2,-y,z+1/2'


loop_
_atom_site_label
_atom_site_type_symbol
_atom_site_fract_x
_atom_site_fract_y
_atom_site_fract_z
_atom_site_occupancy
_atom_site_U_iso_or_equiv
NA Na 0.247 0.228 0.284 0.65 0.1160
K1 K 0.500 -0.071 0.615 0.85 0.1160
SI1 Si 0.156 0.432 -0.191 0.625 0.0260
SI2 Si 0.154 0.110 -0.242 0.625 0.0260
SI3 Si 0.345 0.073 0.000 0.625 0.0260
SI4 Si 0.348 0.389 0.048 0.625 0.0260
AL1 Al 0.156 0.432 -0.191 0.375 0.0260
AL2 Al 0.154 0.110 -0.242 0.375 0.0260
AL3 Al 0.345 0.073 0.000 0.375 0.0260
AL4 Al 0.348 0.389 0.048 0.375 0.0260
O1 O 0.186 0.275 -0.241 1.0 0.0231
O2 O 0.000 0.441 -0.162 1.0 0.0231
O3 O 0.200 0.538 -0.309 1.0 0.0231
O4 O 0.254 0.459 -0.061 1.0 0.0231
O5 O 0.000 0.074 -0.197 1.0 0.0231
O6 O 0.198 0.048 -0.394 1.0 0.0231
O7 O 0.254 0.046 -0.138 1.0 0.0231
O8 O 0.312 0.226 0.059 1.0 0.0231
O9 O 0.500 0.073 -0.026 1.0 0.0231
O10 O 0.500 0.414 0.009 1.0 0.0231
H2O1 O2-(H2O) 0.500 0.243 0.321 1.1 0.1160
H2O2 O2-(H2O) 0.000 0.395 0.146 1.45 0.1160
H2O3 O2-(H2O) 0.000 0.314 0.306 0.9 0.1160
H2O4 O2-(H2O) 0.341 0.271 0.559 1.275 0.1160
H2O5 O2-(H2O) 0.500 0.338 0.600 1.45 0.1160




