data_Gmelinite
_cell_length_a         13.75
_cell_length_b         13.75
_cell_length_c         10.05
_cell_angle_alpha     90
_cell_angle_beta      90
_cell_angle_gamma     120


# setting 
_symmetry_space_group_name_H-M 'P63/mmc'


loop_
_symmetry_equiv_pos_as_xyz
'x,y,z'
'x-y,x,z+1/2'
'y,-x+y,z+1/2'
'-y,x-y,z'
'-x+y,-x,z'
'x-y,-y,-z'
'-x,-x+y,-z'
'-x,-y,z+1/2'
'y,x,-z'
'-y,-x,-z+1/2'
'-x+y,y,-z+1/2'
'x,x-y,-z+1/2'
'-x,-y,-z'
'-x+y,-x,-z-1/2'
'-y,x-y,-z-1/2'
'y,-x+y,-z'
'x-y,x,-z'
'-x+y,y,z'
'x,x-y,z'
'x,y,-z-1/2'
'-y,-x,z'
'y,x,z-1/2'
'x-y,-y,z-1/2'
'-x,-x+y,z-1/2'


loop_
_atom_site_label
_atom_site_type_symbol
_atom_site_fract_x
_atom_site_fract_y
_atom_site_fract_z
_atom_site_occupancy
_atom_site_U_iso_or_equiv
CA Ca 0.3333 0.6667 0.073 1.0 0.0760
SI1 Si 0.441 0.106 0.093 0.6667 0.0114
AL1 Al 0.441 0.106 0.093 0.3333 0.0114
O1 O -0.202 -0.404 0.063 1.0 0.0253
O2 O 0.575 0.150 0.064 1.0 0.0291
O3 O 0.411 0.067 0.250 1.0 0.0291
O4 O 0.354 0.0 0.0 1.0 0.0291
H2O1 O2-(H2O) 0.20 0.54 0.2500 0.25 0.0443
H2O2 O2-(H2O) 0.22 0.44 0.99 0.5 0.1140
H2O3 O2-(H2O) 0.43 0.86 0.97 0.5 0.1140
H2O4 O2-(H2O) 0.17 0.34 0.2500 0.5 0.0633
H2O5 O2-(H2O) 0.08 0.16 0.89 0.5 0.0507
H2O6 O2-(H2O) 0.10 0.20 0.06 0.2 0.0823




