data_Goosecreekite
_cell_length_a         7.401
_cell_length_b         17.439
_cell_length_c         7.293
_cell_angle_alpha     90
_cell_angle_beta      105.44
_cell_angle_gamma     90


# setting 
_symmetry_space_group_name_H-M 'P1211'


loop_
_symmetry_equiv_pos_as_xyz
'x,y,z'
'-x,y+1/2,-z'


loop_
_atom_site_label
_atom_site_type_symbol
_atom_site_fract_x
_atom_site_fract_y
_atom_site_fract_z
_atom_site_occupancy
_atom_site_U_iso_or_equiv
CA Ca 0.6557 0.2721 0.1969 1.0 0.0225
SI1 Si 0.3374 0.4732 0.6282 1.0 0.0149
SI2 Si 0.3168 0.1294 0.5997 1.0 0.0142
SI3 Si 0.0219 0.2599 0.5249 1.0 0.0130
SI4 Si 0.1044 0.0578 0.8612 1.0 0.0137
SI5 Si 0.0892 0.3877 0.8325 1.0 0.0136
SI6 Si 0.2394 0.0045 0.2768 1.0 0.0134
AL1 Al 0.7482 0.1285 0.5887 1.0 0.0127
AL2 Al 0.0682 0.3982 0.2632 1.0 0.0129
O1 O 0.7228 0.0612 0.4105 1.0 0.0253
O2 O 0.5336 0.1478 0.6346 1.0 0.0237
O3 O 0.8372 0.2097 0.5064 1.0 0.0168
O4 O 0.9065 0.1001 0.7936 1.0 0.0225
O5 O 0.2607 0.4392 0.8023 1.0 0.0224
O6 O 0.2666 0.4226 0.4408 1.0 0.0191
O7 O 0.5594 0.4662 0.7062 1.0 0.0269
O8 O 0.2017 0.2065 0.5155 1.0 0.0203
O9 O 0.2657 0.1069 0.7949 1.0 0.0209
O10 O 0.2515 0.0596 0.4581 1.0 0.0236
O11 O 0.0811 0.3051 0.7261 1.0 0.0213
O12 O 0.9698 0.3179 0.3431 1.0 0.0200
O13 O 0.9052 0.4718 0.2174 1.0 0.0265
O14 O 0.1728 0.0585 0.0904 1.0 0.0251
O15 O 0.1202 0.3741 0.0505 1.0 0.0242
O16 O 0.9022 0.4346 0.7315 1.0 0.0261
H2O1 O2-(H2O) 0.3512 0.2234 0.0964 1.0 0.0612
H2O2 O2-(H2O) 0.6565 0.2989 0.8717 1.0 0.0609
H2O3 O2-(H2O) 0.5102 0.3063 0.4504 1.0 0.0443
H2O4 O2-(H2O) 0.7574 0.1530 0.1048 1.0 0.0496
H2O5 O2-(H2O) 0.5650 0.4074 0.1595 1.0 0.0472




