data_Heulandite
_cell_length_a         17.767
_cell_length_b         17.958
_cell_length_c         7.431
_cell_angle_alpha     90
_cell_angle_beta      115.93
_cell_angle_gamma     90


# setting 
_symmetry_space_group_name_H-M 'C12/m1'


loop_
_symmetry_equiv_pos_as_xyz
'x,y,z'
'-x,y,-z'
'-x,-y,-z'
'x,-y,z'
'x+1/2,y+1/2,z'
'-x+1/2,y+1/2,-z'
'-x+1/2,-y+1/2,-z'
'x+1/2,-y+1/2,z'


loop_
_atom_site_label
_atom_site_type_symbol
_atom_site_fract_x
_atom_site_fract_y
_atom_site_fract_z
_atom_site_occupancy
_atom_site_U_iso_or_equiv
K1 K 0.079 0.0 0.281 0.34 0.2419
K2 K 0.071 0.0 0.110 0.36 0.1343
K3 K 0.241 0.500 0.061 0.74 0.0431
K4 K 0.210 0.500 -0.033 0.19 0.0583
K5 K 0.032 0.500 0.190 0.49 0.1216
SI1 Si 0.1794 0.1686 0.0978 0.74 0.0127
SI2 Si 0.2146 0.4108 0.5063 0.74 0.0139
SI3 Si 0.2083 0.1912 0.7161 0.74 0.0127
SI4 Si 0.0668 0.2983 0.4176 0.74 0.0139
SI5 Si 0.0 0.2173 0.0 0.74 0.0165
AL1 Al 0.1794 0.1686 0.0978 0.26 0.0127
AL2 Al 0.2146 0.4108 0.5063 0.26 0.0139
AL3 Al 0.2083 0.1912 0.7161 0.26 0.0127
AL4 Al 0.0668 0.2983 0.4176 0.26 0.0139
AL5 Al 0.0 0.2173 0.0 0.26 0.0165
O1 O 0.1981 0.5000 0.4565 1.0 0.0291
O2 O 0.2330 0.1213 0.6144 1.0 0.0342
O3 O 0.1882 0.1535 0.8902 1.0 0.0380
O4 O 0.2304 0.1008 0.2473 1.0 0.0317
O5 O 0.0 0.3257 0.5000 1.0 0.0405
O6 O 0.0805 0.1614 0.0499 1.0 0.0329
O7 O 0.1226 0.2296 0.5515 1.0 0.0405
O8 O 0.0142 0.2709 0.1891 1.0 0.0431
O9 O 0.2153 0.2492 0.1928 1.0 0.0304
O10 O 0.1208 0.3708 0.4225 1.0 0.0355
H2O1 O2-(H2O) 0.408 0.092 0.049 1.0 0.1229
H2O2 O2-(H2O) 0.008 0.099 0.414 0.5 0.1013
H2O3 O2-(H2O) 0.365 0.500 0.334 0.45 0.0849
H2O4 O2-(H2O) 0.419 0.500 0.207 0.55 0.1305
H2O5 O2-(H2O) 0.0 0.500 0.500 1.0 0.1381




