data_ITQ-27
_cell_length_a        27.7508
_cell_length_b        25.2969
_cell_length_c        13.7923
_cell_angle_alpha    90.0
_cell_angle_beta     90.0
_cell_angle_gamma    90.0


# setting 
_symmetry_space_group_name_H-M 'Fmmm'


loop_
_symmetry_equiv_pos_as_xyz
'x,y,z'
'x,-y,-z'
'-x,y,-z'
'-x,-y,z'
'-x,-y,-z'
'-x,y,z'
'x,-y,z'
'x,y,-z'
'x,y+1/2,z+1/2'
'x,-y+1/2,-z+1/2'
'-x,y+1/2,-z+1/2'
'-x,-y+1/2,z+1/2'
'-x,-y+1/2,-z+1/2'
'-x,y+1/2,z+1/2'
'x,-y+1/2,z+1/2'
'x,y+1/2,-z+1/2'
'x+1/2,y,z+1/2'
'x+1/2,-y,-z+1/2'
'-x+1/2,y,-z+1/2'
'-x+1/2,-y,z+1/2'
'-x+1/2,-y,-z+1/2'
'-x+1/2,y,z+1/2'
'x+1/2,-y,z+1/2'
'x+1/2,y,-z+1/2'
'x+1/2,y+1/2,z'
'x+1/2,-y+1/2,-z'
'-x+1/2,y+1/2,-z'
'-x+1/2,-y+1/2,z'
'-x+1/2,-y+1/2,-z'
'-x+1/2,y+1/2,z'
'x+1/2,-y+1/2,z'
'x+1/2,y+1/2,-z'


loop_
_atom_site_label
_atom_site_type_symbol
_atom_site_fract_x
_atom_site_fract_y
_atom_site_fract_z
_atom_site_occupancy
_atom_site_U_iso_or_equiv
Si1 Si 0.1478 0.0995 0.1968 1 0.0150
Si2 Si 0.3033 0 0.2101 1 0.0150
Si3 Si 0.0544 0.0656 0.1128 1 0.0150
Si4 Si 0.28 0.1959 0 1 0.0150
Si5 Si 0.3068 0.1934 0.2129 1 0.0150
Si6 Si 0.205 0.1011 0 1 0.0150
Si7 Si 0.2704 0 0 1 0.0150
O1 O 0.0908 0.0951 0.1828 1 0.0320
O2 O 0.1725 0.1027 0.0948 1 0.0320
O3 O 0.1533 0.1539 0.2514 1 0.0320
O4 O 0.1693 0.0519 0.2551 1 0.0320
O5 O 0.25 0 0.25 1 0.0320
O6 O 0.304 0 0.0946 1 0.0320
O7 O 0.0574 0 0.1204 1 0.0320
O8 O 0.0634 0.0831 0 1 0.0320
O9 O 0 0.084 0.1428 1 0.0320
O10 O 0.3126 0.193 0.9034 1 0.0320
O11 O 0.2428 0.1483 0 1 0.0320
O12 O 0.25 0.25 0 1 0.0320
O13 O 0.25 0.1846 0.25 1 0.0320
O14 O 0.3264 0.25 0.25 1 0.0320
O15 O 0.2362 0.0501 0 1 0.0320




