data_ZK5_Dehydrated
_cell_length_a         18.671
_cell_length_b         18.671
_cell_length_c         18.671
_cell_angle_alpha     90
_cell_angle_beta      90
_cell_angle_gamma     90


# setting 
# _symmetry_space_group_name_H-M 'Im-3m'


loop_
_symmetry_equiv_pos_as_xyz
'x,y,z'
'x,-z,y'
'x,z,-y'
'z,y,-x'
'-z,y,x'
'-y,x,z'
'y,-x,z'
'z,x,y'
'y,z,x'
'-y,-z,x'
'z,-x,-y'
'-y,z,-x'
'-z,-x,y'
'-z,x,-y'
'y,-z,-x'
'x,-y,-z'
'-x,y,-z'
'-x,-y,z'
'y,x,-z'
'-y,-x,-z'
'z,-y,x'
'-z,-y,-x'
'-x,z,y'
'-x,-z,-y'
'-x,-y,-z'
'-x,z,-y'
'-x,-z,y'
'-z,-y,x'
'z,-y,-x'
'y,-x,-z'
'-y,x,-z'
'-z,-x,-y'
'-y,-z,-x'
'y,z,-x'
'-z,x,y'
'y,-z,x'
'z,x,-y'
'z,-x,y'
'-y,z,x'
'-x,y,z'
'x,-y,z'
'x,y,-z'
'-y,-x,z'
'y,x,z'
'-z,y,-x'
'z,y,x'
'x,-z,-y'
'x,z,y'
'x+1/2,y+1/2,z+1/2'
'x+1/2,-z+1/2,y+1/2'
'x+1/2,z+1/2,-y+1/2'
'z+1/2,y+1/2,-x+1/2'
'-z+1/2,y+1/2,x+1/2'
'-y+1/2,x+1/2,z+1/2'
'y+1/2,-x+1/2,z+1/2'
'z+1/2,x+1/2,y+1/2'
'y+1/2,z+1/2,x+1/2'
'-y+1/2,-z+1/2,x+1/2'
'z+1/2,-x+1/2,-y+1/2'
'-y+1/2,z+1/2,-x+1/2'
'-z+1/2,-x+1/2,y+1/2'
'-z+1/2,x+1/2,-y+1/2'
'y+1/2,-z+1/2,-x+1/2'
'x+1/2,-y+1/2,-z+1/2'
'-x+1/2,y+1/2,-z+1/2'
'-x+1/2,-y+1/2,z+1/2'
'y+1/2,x+1/2,-z+1/2'
'-y+1/2,-x+1/2,-z+1/2'
'z+1/2,-y+1/2,x+1/2'
'-z+1/2,-y+1/2,-x+1/2'
'-x+1/2,z+1/2,y+1/2'
'-x+1/2,-z+1/2,-y+1/2'
'-x+1/2,-y+1/2,-z+1/2'
'-x+1/2,z+1/2,-y+1/2'
'-x+1/2,-z+1/2,y+1/2'
'-z+1/2,-y+1/2,x+1/2'
'z+1/2,-y+1/2,-x+1/2'
'y+1/2,-x+1/2,-z+1/2'
'-y+1/2,x+1/2,-z+1/2'
'-z+1/2,-x+1/2,-y+1/2'
'-y+1/2,-z+1/2,-x+1/2'
'y+1/2,z+1/2,-x+1/2'
'-z+1/2,x+1/2,y+1/2'
'y+1/2,-z+1/2,x+1/2'
'z+1/2,x+1/2,-y+1/2'
'z+1/2,-x+1/2,y+1/2'
'-y+1/2,z+1/2,x+1/2'
'-x+1/2,y+1/2,z+1/2'
'x+1/2,-y+1/2,z+1/2'
'x+1/2,y+1/2,-z+1/2'
'-y+1/2,-x+1/2,z+1/2'
'y+1/2,x+1/2,z+1/2'
'-z+1/2,y+1/2,-x+1/2'
'z+1/2,y+1/2,x+1/2'
'x+1/2,-z+1/2,-y+1/2'
'x+1/2,z+1/2,y+1/2'


loop_
_atom_site_label
_atom_site_type_sumbol
_atom_site_fract_x
_atom_site_fract_y
_atom_site_fract_z
_atom_site_occupancy
_atom_site_U_iso_or_equiv
K1 K 0.0 0.2500 0.5000 0.78 0.0494
K2 K 0.150 0.150 0.150 0.22 0.0494
CS Cs 0.0 0.0 0.314 0.81 0.0595
SI1 Si 0.0825 0.2023 0.3211 0.76 0.0139
AL1 Al 0.0825 0.2023 0.3211 0.24 0.0139
O1 O 0.1280 0.1280 0.3145 1.0 0.0253
O2 O 0.2522 0.2522 0.4081 1.0 0.0165
O3 O 0.0 0.1783 0.3369 1.0 0.0215
O4 O 0.2500 0.1085 0.3915 1.0 0.0215




