data_Levyne
_cell_length_a         13.338
_cell_length_b         13.338
_cell_length_c         23.014
_cell_angle_alpha     90
_cell_angle_beta      90
_cell_angle_gamma     120


# setting H
# _symmetry_space_group_name_H-M 'R-3m'


loop_
_symmetry_equiv_pos_as_xyz
'x,y,z'
'-y,x-y,z'
'-x+y,-x,z'
'x-y,-y,-z'
'-x,-x+y,-z'
'y,x,-z'
'-x,-y,-z'
'y,-x+y,-z'
'x-y,x,-z'
'-x+y,y,z'
'x,x-y,z'
'-y,-x,z'
'x+1/3,y+2/3,z+2/3'
'-y+1/3,x-y+2/3,z+2/3'
'-x+y+1/3,-x+2/3,z+2/3'
'x-y+1/3,-y+2/3,-z+2/3'
'-x+1/3,-x+y+2/3,-z+2/3'
'y+1/3,x+2/3,-z+2/3'
'-x+1/3,-y+2/3,-z+2/3'
'y+1/3,-x+y+2/3,-z+2/3'
'x-y+1/3,x+2/3,-z+2/3'
'-x+y+1/3,y+2/3,z+2/3'
'x+1/3,x-y+2/3,z+2/3'
'-y+1/3,-x+2/3,z+2/3'
'x+2/3,y+1/3,z+1/3'
'-y+2/3,x-y+1/3,z+1/3'
'-x+y+2/3,-x+1/3,z+1/3'
'x-y+2/3,-y+1/3,-z+1/3'
'-x+2/3,-x+y+1/3,-z+1/3'
'y+2/3,x+1/3,-z+1/3'
'-x+2/3,-y+1/3,-z+1/3'
'y+2/3,-x+y+1/3,-z+1/3'
'x-y+2/3,x+1/3,-z+1/3'
'-x+y+2/3,y+1/3,z+1/3'
'x+2/3,x-y+1/3,z+1/3'
'-y+2/3,-x+1/3,z+1/3'


loop_
_atom_site_label
_atom_site_type_sumbol
_atom_site_fract_x
_atom_site_fract_y
_atom_site_fract_z
_atom_site_occupancy
_atom_site_U_iso_or_equiv
NA2 Na 0.0 0.0 0.2782 0.12 0.0431
NA3 Na 0.0 0.0 0.4095 0.12 0.1191
NA4 Na 0.0 0.0 0.4498 0.06 0.0089
NA5 Na 0.0 0.0 0.5 0.12 0.0089
K2 K 0.0 0.0 0.2782 0.06 0.0431
K3 K 0.0 0.0 0.4095 0.06 0.1191
CA1 Ca 0.0 0.0 0.1389 1.0 0.0441
CA2 Ca 0.0 0.0 0.2782 0.12 0.0431
CA3 Ca 0.0 0.0 0.4095 0.12 0.1191
CA4 Ca 0.0 0.0 0.4498 0.06 0.0089
SI1 Si 0.0001 0.2322 0.0697 0.65 0.0176
SI2 Si 0.2396 0.0 0.5 0.65 0.0167
AL1 Al 0.0001 0.2322 0.0697 0.35 0.0176
AL2 Al 0.2396 0.0 0.5 0.35 0.0167
O1 O 0.0339 0.3493 0.1079 1.0 0.0344
O2 O 0.0920 -0.0920 0.0827 1.0 0.0377
O3 O 0.1275 -0.1275 -0.0910 1.0 0.0437
O4 O 0.2643 0.0 0.0 1.0 0.0485
O5 O 0.2219 -0.2219 0.1793 1.0 0.0377
H2O1 O2-(H2O) 0.2567 -0.2567 -0.1241 1.0 0.0608
H2O2 O2-(H2O) 0.1222 -0.1222 0.2852 0.74 0.1013
H2O3 O2-(H2O) 0.2547 -0.2547 0.0187 0.54 0.0823
H2O4 O2-(H2O) 0.5429 -0.5429 -0.0445 0.28 0.0722




