data_Losod
_cell_length_a         12.906
_cell_length_b         12.906
_cell_length_c         10.541
_cell_angle_alpha     90
_cell_angle_beta      90
_cell_angle_gamma     120


# setting 
# _symmetry_space_group_name_H-M 'P63mc'


loop_
_symmetry_equiv_pos_as_xyz
'x,y,z'
'x-y,x,z+1/2'
'y,-x+y,z+1/2'
'-y,x-y,z'
'-x+y,-x,z'
'-x,-y,z+1/2'
'-x+y,y,z'
'x,x-y,z'
'-y,-x,z'
'y,x,z+1/2'
'x-y,-y,z+1/2'
'-x,-x+y,z+1/2'


loop_
_atom_site_label
_atom_site_type_sumbol
_atom_site_fract_x
_atom_site_fract_y
_atom_site_fract_z
_atom_site_occupancy
_atom_site_U_iso_or_equiv
NA1 Na 0.897 0.449 -0.018 0.98 0.1418
NA2 Na 0.846 0.1539 -0.24 0.73 0.0697
NA3 Na 0.0 0.0 -0.45 0.52 0.0000
NA4 Na 0.6667 0.3333 -0.66 0.60 0.0190
SI1 Si 0.250 -0.002 0.0 0.5 0.0190
AL1 Al 0.250 -0.002 0.0 0.5 0.0190
SI2 Si 0.414 0.084 0.248 0.5 0.0241
AL2 Al 0.414 0.084 0.248 0.5 0.0241
O1 O 0.220 0.110 -0.006 1.0 0.0557
O2 O 0.358 0.025 0.102 1.0 0.0266
O3 O 0.4581 0.229 0.257 1.0 0.0735
O4 O 0.529 0.058 0.267 1.0 0.0519
O5 O 0.125 -0.125 0.035 1.0 0.1811
O6 O 0.312 0.007 0.354 1.0 0.0443
H2O1 O2-(H2O) 0.749 0.251 -0.22 0.87 0.1634
H2O2 O2-(H2O) 0.774 0.387 -0.442 0.88 0.1735
H2O3 O2-(H2O) 0.0 0.0 -0.61 0.53 0.0063
H2O4 O2-(H2O) 0.0 0.0 -0.24 0.52 0.0000
H2O5 O2-(H2O) 0.6667 0.3333 0.06 0.86 0.1456




