data_Lovdarite
_cell_length_a         39.576
_cell_length_b         6.9308
_cell_length_c         7.1526
_cell_angle_alpha     90
_cell_angle_beta      90
_cell_angle_gamma     90


# setting 
# _symmetry_space_group_name_H-M 'Pma2'


loop_
_symmetry_equiv_pos_as_xyz
'x,y,z'
'-x,-y,z'
'-x+1/2,y,z'
'x+1/2,-y,z'


loop_
_atom_site_label
_atom_site_type_sumbol
_atom_site_fract_x
_atom_site_fract_y
_atom_site_fract_z
_atom_site_occupancy
_atom_site_U_iso_or_equiv
NA1 Na 0.25 0.6098 0.2437 1.0 0.0247
NA2 Na 0.25 0.6217 0.7683 1.0 0.0250
NA3 Na 0.1283 0.8542 0.6990 1.0 0.0276
NA4 Na 0.0069 0.2840 0.8652 1.0 0.0773
K K 0.3860 0.0417 0.1828 1.0 0.0251
SI1 Si 0.2113 0.0504 0.2770 1.0 0.0092
SI2 Si 0.2113 0.0497 0.7179 1.0 0.0106
SI3 Si 0.1952 0.3671 -0.0008 1.0 0.0098
SI4 Si 0.1248 0.5026 -0.0269 1.0 0.0113
SI5 Si 0.0582 0.5267 0.1399 1.0 0.0117
SI6 Si 0.0333 0.2593 0.4469 1.0 0.0100
SI7 Si 0.0458 0.8202 0.4588 1.0 0.0110
BE1 Be 0.1805 0.7820 0.0050 1.0 0.0060
BE2 Be 0.0670 0.5415 0.7334 1.0 0.0127
O1 O 0.25 -0.0319 0.2723 1.0 0.0077
O2 O 0.2103 0.2603 0.1857 1.0 0.0171
O3 O 0.1858 -0.0960 0.1901 1.0 0.0142
O4 O 0.2023 0.0905 0.5007 1.0 0.0168
O5 O 0.25 -0.0324 0.7287 1.0 0.0152
O6 O 0.2106 0.2624 0.8147 1.0 0.0144
O7 O 0.1858 -0.1014 0.8030 1.0 0.0146
O8 O 0.2065 0.5870 0.0011 1.0 0.0098
O9 O 0.1540 0.3356 0.0027 1.0 0.0168
O10 O 0.1409 0.7122 -0.0041 1.0 0.0158
O11 O 0.0979 0.4563 0.1463 1.0 0.0127
O12 O 0.1057 0.4735 0.7794 1.0 0.0170
O13 O 0.0355 0.3608 0.2493 1.0 0.0155
O14 O 0.0563 0.7205 0.2606 1.0 0.0239
O15 O 0.0448 0.5539 -0.0671 1.0 0.0177
O16 O 0.0514 0.0501 0.4226 1.0 0.0143
O17 O 0.0493 0.3782 0.6145 1.0 0.0191
O18 O -0.0060 0.2198 0.5039 1.0 0.0181
O19 O 0.0678 -0.2501 0.6341 1.0 0.0111
H2O1 O2-(H2O) 0.2115 0.5643 0.5123 1.0 0.0275
H2O2 O2-(H2O) 0.1438 0.6958 0.4247 1.0 0.0301
H2O3 O2-(H2O) 0.1290 0.1820 0.5459 1.0 0.0342
H2O4 O2-(H2O) 0.0744 0.0616 0.8790 1.0 0.0495
H2O5 O2-(H2O) 0.0 0.0 0.0134 1.0 0.1017




