data_Linde_Type_A_Hydrated
_cell_length_a         24.61
_cell_length_b         24.61
_cell_length_c         24.61
_cell_angle_alpha     90
_cell_angle_beta      90
_cell_angle_gamma     90


# setting 
_symmetry_space_group_name_H-M 'Fm-3c'


loop_
_symmetry_equiv_pos_as_xyz
'x,y,z'
'x+1/2,-z,y'
'x+1/2,z,-y'
'z+1/2,y,-x'
'-z+1/2,y,x'
'-y+1/2,x,z'
'y+1/2,-x,z'
'z,x,y'
'y,z,x'
'-y,-z,x'
'z,-x,-y'
'-y,z,-x'
'-z,-x,y'
'-z,x,-y'
'y,-z,-x'
'x,-y,-z'
'-x,y,-z'
'-x,-y,z'
'y+1/2,x,-z'
'-y+1/2,-x,-z'
'z+1/2,-y,x'
'-z+1/2,-y,-x'
'-x+1/2,z,y'
'-x+1/2,-z,-y'
'-x,-y,-z'
'-x-1/2,z,-y'
'-x-1/2,-z,y'
'-z-1/2,-y,x'
'z-1/2,-y,-x'
'y-1/2,-x,-z'
'-y-1/2,x,-z'
'-z,-x,-y'
'-y,-z,-x'
'y,z,-x'
'-z,x,y'
'y,-z,x'
'z,x,-y'
'z,-x,y'
'-y,z,x'
'-x,y,z'
'x,-y,z'
'x,y,-z'
'-y-1/2,-x,z'
'y-1/2,x,z'
'-z-1/2,y,-x'
'z-1/2,y,x'
'x-1/2,-z,-y'
'x-1/2,z,y'
'x,y+1/2,z+1/2'
'x+1/2,-z+1/2,y+1/2'
'x+1/2,z+1/2,-y+1/2'
'z+1/2,y+1/2,-x+1/2'
'-z+1/2,y+1/2,x+1/2'
'-y+1/2,x+1/2,z+1/2'
'y+1/2,-x+1/2,z+1/2'
'z,x+1/2,y+1/2'
'y,z+1/2,x+1/2'
'-y,-z+1/2,x+1/2'
'z,-x+1/2,-y+1/2'
'-y,z+1/2,-x+1/2'
'-z,-x+1/2,y+1/2'
'-z,x+1/2,-y+1/2'
'y,-z+1/2,-x+1/2'
'x,-y+1/2,-z+1/2'
'-x,y+1/2,-z+1/2'
'-x,-y+1/2,z+1/2'
'y+1/2,x+1/2,-z+1/2'
'-y+1/2,-x+1/2,-z+1/2'
'z+1/2,-y+1/2,x+1/2'
'-z+1/2,-y+1/2,-x+1/2'
'-x+1/2,z+1/2,y+1/2'
'-x+1/2,-z+1/2,-y+1/2'
'-x,-y+1/2,-z+1/2'
'-x-1/2,z+1/2,-y+1/2'
'-x-1/2,-z+1/2,y+1/2'
'-z-1/2,-y+1/2,x+1/2'
'z-1/2,-y+1/2,-x+1/2'
'y-1/2,-x+1/2,-z+1/2'
'-y-1/2,x+1/2,-z+1/2'
'-z,-x+1/2,-y+1/2'
'-y,-z+1/2,-x+1/2'
'y,z+1/2,-x+1/2'
'-z,x+1/2,y+1/2'
'y,-z+1/2,x+1/2'
'z,x+1/2,-y+1/2'
'z,-x+1/2,y+1/2'
'-y,z+1/2,x+1/2'
'-x,y+1/2,z+1/2'
'x,-y+1/2,z+1/2'
'x,y+1/2,-z+1/2'
'-y-1/2,-x+1/2,z+1/2'
'y-1/2,x+1/2,z+1/2'
'-z-1/2,y+1/2,-x+1/2'
'z-1/2,y+1/2,x+1/2'
'x-1/2,-z+1/2,-y+1/2'
'x-1/2,z+1/2,y+1/2'
'x+1/2,y,z+1/2'
'x+1,-z,y+1/2'
'x+1,z,-y+1/2'
'z+1,y,-x+1/2'
'-z+1,y,x+1/2'
'-y+1,x,z+1/2'
'y+1,-x,z+1/2'
'z+1/2,x,y+1/2'
'y+1/2,z,x+1/2'
'-y+1/2,-z,x+1/2'
'z+1/2,-x,-y+1/2'
'-y+1/2,z,-x+1/2'
'-z+1/2,-x,y+1/2'
'-z+1/2,x,-y+1/2'
'y+1/2,-z,-x+1/2'
'x+1/2,-y,-z+1/2'
'-x+1/2,y,-z+1/2'
'-x+1/2,-y,z+1/2'
'y+1,x,-z+1/2'
'-y+1,-x,-z+1/2'
'z+1,-y,x+1/2'
'-z+1,-y,-x+1/2'
'-x+1,z,y+1/2'
'-x+1,-z,-y+1/2'
'-x+1/2,-y,-z+1/2'
'-x,z,-y+1/2'
'-x,-z,y+1/2'
'-z,-y,x+1/2'
'z,-y,-x+1/2'
'y,-x,-z+1/2'
'-y,x,-z+1/2'
'-z+1/2,-x,-y+1/2'
'-y+1/2,-z,-x+1/2'
'y+1/2,z,-x+1/2'
'-z+1/2,x,y+1/2'
'y+1/2,-z,x+1/2'
'z+1/2,x,-y+1/2'
'z+1/2,-x,y+1/2'
'-y+1/2,z,x+1/2'
'-x+1/2,y,z+1/2'
'x+1/2,-y,z+1/2'
'x+1/2,y,-z+1/2'
'-y,-x,z+1/2'
'y,x,z+1/2'
'-z,y,-x+1/2'
'z,y,x+1/2'
'x,-z,-y+1/2'
'x,z,y+1/2'
'x+1/2,y+1/2,z'
'x+1,-z+1/2,y'
'x+1,z+1/2,-y'
'z+1,y+1/2,-x'
'-z+1,y+1/2,x'
'-y+1,x+1/2,z'
'y+1,-x+1/2,z'
'z+1/2,x+1/2,y'
'y+1/2,z+1/2,x'
'-y+1/2,-z+1/2,x'
'z+1/2,-x+1/2,-y'
'-y+1/2,z+1/2,-x'
'-z+1/2,-x+1/2,y'
'-z+1/2,x+1/2,-y'
'y+1/2,-z+1/2,-x'
'x+1/2,-y+1/2,-z'
'-x+1/2,y+1/2,-z'
'-x+1/2,-y+1/2,z'
'y+1,x+1/2,-z'
'-y+1,-x+1/2,-z'
'z+1,-y+1/2,x'
'-z+1,-y+1/2,-x'
'-x+1,z+1/2,y'
'-x+1,-z+1/2,-y'
'-x+1/2,-y+1/2,-z'
'-x,z+1/2,-y'
'-x,-z+1/2,y'
'-z,-y+1/2,x'
'z,-y+1/2,-x'
'y,-x+1/2,-z'
'-y,x+1/2,-z'
'-z+1/2,-x+1/2,-y'
'-y+1/2,-z+1/2,-x'
'y+1/2,z+1/2,-x'
'-z+1/2,x+1/2,y'
'y+1/2,-z+1/2,x'
'z+1/2,x+1/2,-y'
'z+1/2,-x+1/2,y'
'-y+1/2,z+1/2,x'
'-x+1/2,y+1/2,z'
'x+1/2,-y+1/2,z'
'x+1/2,y+1/2,-z'
'-y,-x+1/2,z'
'y,x+1/2,z'
'-z,y+1/2,-x'
'z,y+1/2,x'
'x,-z+1/2,-y'
'x,z+1/2,y'


loop_
_atom_site_label
_atom_site_type_symbol
_atom_site_fract_x
_atom_site_fract_y
_atom_site_fract_z
_atom_site_occupancy
_atom_site_U_iso_or_equiv
NA1 Na 0.1064 0.1064 0.1064 1.0 0.0980
SI1 Si 0.0 0.0929 0.1844 1.0 0.0147
AL1 Al 0.0 0.1864 0.0902 1.0 0.0127
O1 O 0.0 0.1116 0.2473 1.0 0.0323
O2 O 0.0 0.1463 0.1476 1.0 0.0263
O3 O 0.0538 0.0583 0.1704 1.0 0.0310
O4 O 0.02 0.03 0.064 0.115 0.3166
O5 O 0.03 0.02 0.064 0.115 0.3166
O6 O 0.1598 0.1598 0.1598 0.91 0.2300
O7 O 0.1155 0.167 0.262 0.325 0.4234
O8 O 0.167 0.1155 0.262 0.325 0.4234
O9 O 0.041 0.210 0.235 0.22 0.4400
O10 O 0.210 0.041 0.235 0.22 0.4400
O11 O 0.25 0.25 0.25 1.88 0.7800




