data_Linde_Type_A_Dehydrated
_cell_length_a         24.555
_cell_length_b         24.555
_cell_length_c         24.555
_cell_angle_alpha     90
_cell_angle_beta      90
_cell_angle_gamma     90


# setting 
# _symmetry_space_group_name_H-M 'Fm-3c'


loop_
_symmetry_equiv_pos_as_xyz
'x,y,z'
'x+1/2,-z,y'
'x+1/2,z,-y'
'z+1/2,y,-x'
'-z+1/2,y,x'
'-y+1/2,x,z'
'y+1/2,-x,z'
'z,x,y'
'y,z,x'
'-y,-z,x'
'z,-x,-y'
'-y,z,-x'
'-z,-x,y'
'-z,x,-y'
'y,-z,-x'
'x,-y,-z'
'-x,y,-z'
'-x,-y,z'
'y+1/2,x,-z'
'-y+1/2,-x,-z'
'z+1/2,-y,x'
'-z+1/2,-y,-x'
'-x+1/2,z,y'
'-x+1/2,-z,-y'
'-x,-y,-z'
'-x-1/2,z,-y'
'-x-1/2,-z,y'
'-z-1/2,-y,x'
'z-1/2,-y,-x'
'y-1/2,-x,-z'
'-y-1/2,x,-z'
'-z,-x,-y'
'-y,-z,-x'
'y,z,-x'
'-z,x,y'
'y,-z,x'
'z,x,-y'
'z,-x,y'
'-y,z,x'
'-x,y,z'
'x,-y,z'
'x,y,-z'
'-y-1/2,-x,z'
'y-1/2,x,z'
'-z-1/2,y,-x'
'z-1/2,y,x'
'x-1/2,-z,-y'
'x-1/2,z,y'
'x,y+1/2,z+1/2'
'x+1/2,-z+1/2,y+1/2'
'x+1/2,z+1/2,-y+1/2'
'z+1/2,y+1/2,-x+1/2'
'-z+1/2,y+1/2,x+1/2'
'-y+1/2,x+1/2,z+1/2'
'y+1/2,-x+1/2,z+1/2'
'z,x+1/2,y+1/2'
'y,z+1/2,x+1/2'
'-y,-z+1/2,x+1/2'
'z,-x+1/2,-y+1/2'
'-y,z+1/2,-x+1/2'
'-z,-x+1/2,y+1/2'
'-z,x+1/2,-y+1/2'
'y,-z+1/2,-x+1/2'
'x,-y+1/2,-z+1/2'
'-x,y+1/2,-z+1/2'
'-x,-y+1/2,z+1/2'
'y+1/2,x+1/2,-z+1/2'
'-y+1/2,-x+1/2,-z+1/2'
'z+1/2,-y+1/2,x+1/2'
'-z+1/2,-y+1/2,-x+1/2'
'-x+1/2,z+1/2,y+1/2'
'-x+1/2,-z+1/2,-y+1/2'
'-x,-y+1/2,-z+1/2'
'-x-1/2,z+1/2,-y+1/2'
'-x-1/2,-z+1/2,y+1/2'
'-z-1/2,-y+1/2,x+1/2'
'z-1/2,-y+1/2,-x+1/2'
'y-1/2,-x+1/2,-z+1/2'
'-y-1/2,x+1/2,-z+1/2'
'-z,-x+1/2,-y+1/2'
'-y,-z+1/2,-x+1/2'
'y,z+1/2,-x+1/2'
'-z,x+1/2,y+1/2'
'y,-z+1/2,x+1/2'
'z,x+1/2,-y+1/2'
'z,-x+1/2,y+1/2'
'-y,z+1/2,x+1/2'
'-x,y+1/2,z+1/2'
'x,-y+1/2,z+1/2'
'x,y+1/2,-z+1/2'
'-y-1/2,-x+1/2,z+1/2'
'y-1/2,x+1/2,z+1/2'
'-z-1/2,y+1/2,-x+1/2'
'z-1/2,y+1/2,x+1/2'
'x-1/2,-z+1/2,-y+1/2'
'x-1/2,z+1/2,y+1/2'
'x+1/2,y,z+1/2'
'x+1,-z,y+1/2'
'x+1,z,-y+1/2'
'z+1,y,-x+1/2'
'-z+1,y,x+1/2'
'-y+1,x,z+1/2'
'y+1,-x,z+1/2'
'z+1/2,x,y+1/2'
'y+1/2,z,x+1/2'
'-y+1/2,-z,x+1/2'
'z+1/2,-x,-y+1/2'
'-y+1/2,z,-x+1/2'
'-z+1/2,-x,y+1/2'
'-z+1/2,x,-y+1/2'
'y+1/2,-z,-x+1/2'
'x+1/2,-y,-z+1/2'
'-x+1/2,y,-z+1/2'
'-x+1/2,-y,z+1/2'
'y+1,x,-z+1/2'
'-y+1,-x,-z+1/2'
'z+1,-y,x+1/2'
'-z+1,-y,-x+1/2'
'-x+1,z,y+1/2'
'-x+1,-z,-y+1/2'
'-x+1/2,-y,-z+1/2'
'-x,z,-y+1/2'
'-x,-z,y+1/2'
'-z,-y,x+1/2'
'z,-y,-x+1/2'
'y,-x,-z+1/2'
'-y,x,-z+1/2'
'-z+1/2,-x,-y+1/2'
'-y+1/2,-z,-x+1/2'
'y+1/2,z,-x+1/2'
'-z+1/2,x,y+1/2'
'y+1/2,-z,x+1/2'
'z+1/2,x,-y+1/2'
'z+1/2,-x,y+1/2'
'-y+1/2,z,x+1/2'
'-x+1/2,y,z+1/2'
'x+1/2,-y,z+1/2'
'x+1/2,y,-z+1/2'
'-y,-x,z+1/2'
'y,x,z+1/2'
'-z,y,-x+1/2'
'z,y,x+1/2'
'x,-z,-y+1/2'
'x,z,y+1/2'
'x+1/2,y+1/2,z'
'x+1,-z+1/2,y'
'x+1,z+1/2,-y'
'z+1,y+1/2,-x'
'-z+1,y+1/2,x'
'-y+1,x+1/2,z'
'y+1,-x+1/2,z'
'z+1/2,x+1/2,y'
'y+1/2,z+1/2,x'
'-y+1/2,-z+1/2,x'
'z+1/2,-x+1/2,-y'
'-y+1/2,z+1/2,-x'
'-z+1/2,-x+1/2,y'
'-z+1/2,x+1/2,-y'
'y+1/2,-z+1/2,-x'
'x+1/2,-y+1/2,-z'
'-x+1/2,y+1/2,-z'
'-x+1/2,-y+1/2,z'
'y+1,x+1/2,-z'
'-y+1,-x+1/2,-z'
'z+1,-y+1/2,x'
'-z+1,-y+1/2,-x'
'-x+1,z+1/2,y'
'-x+1,-z+1/2,-y'
'-x+1/2,-y+1/2,-z'
'-x,z+1/2,-y'
'-x,-z+1/2,y'
'-z,-y+1/2,x'
'z,-y+1/2,-x'
'y,-x+1/2,-z'
'-y,x+1/2,-z'
'-z+1/2,-x+1/2,-y'
'-y+1/2,-z+1/2,-x'
'y+1/2,z+1/2,-x'
'-z+1/2,x+1/2,y'
'y+1/2,-z+1/2,x'
'z+1/2,x+1/2,-y'
'z+1/2,-x+1/2,y'
'-y+1/2,z+1/2,x'
'-x+1/2,y+1/2,z'
'x+1/2,-y+1/2,z'
'x+1/2,y+1/2,-z'
'-y,-x+1/2,z'
'y,x+1/2,z'
'-z,y+1/2,-x'
'z,y+1/2,x'
'x,-z+1/2,-y'
'x,z+1/2,y'


loop_
_atom_site_label
_atom_site_type_sumbol
_atom_site_fract_x
_atom_site_fract_y
_atom_site_fract_z
_atom_site_occupancy
_atom_site_U_iso_or_equiv
NA1 Na 0.09960 0.09960 0.09960 0.972 0.0480
NA2 Na 0.0 0.2165 0.2111 0.242 0.0804
NA3 Na 0.2500 0.1060 0.1060 0.066 0.0550
SI1 Si 0.0 0.09316 0.18499 1.0 0.0239
AL1 Al 0.0 0.18715 0.09042 1.0 0.0251
O1 O 0.0 0.11367 0.24663 1.0 0.0401
O2 O 0.0 0.14459 0.14591 1.0 0.0466
O3 O 0.05379 0.05865 0.17152 1.0 0.0377




