data_Mazzite
_cell_length_a         18.392
_cell_length_b         18.392
_cell_length_c         7.646
_cell_angle_alpha     90
_cell_angle_beta      90
_cell_angle_gamma     120


# setting 
_symmetry_space_group_name_H-M 'P63/mmc'


loop_
_symmetry_equiv_pos_as_xyz
'x,y,z'
'x-y,x,z+1/2'
'y,-x+y,z+1/2'
'-y,x-y,z'
'-x+y,-x,z'
'x-y,-y,-z'
'-x,-x+y,-z'
'-x,-y,z+1/2'
'y,x,-z'
'-y,-x,-z+1/2'
'-x+y,y,-z+1/2'
'x,x-y,-z+1/2'
'-x,-y,-z'
'-x+y,-x,-z-1/2'
'-y,x-y,-z-1/2'
'y,-x+y,-z'
'x-y,x,-z'
'-x+y,y,z'
'x,x-y,z'
'x,y,-z-1/2'
'-y,-x,z'
'y,x,z-1/2'
'x-y,-y,z-1/2'
'-x,-x+y,z-1/2'


loop_
_atom_site_label
_atom_site_type_symbol
_atom_site_fract_x
_atom_site_fract_y
_atom_site_fract_z
_atom_site_occupancy
_atom_site_U_iso_or_equiv
NA1 Na 0.5 0.0 0.0 0.05 0.0584
K1 K 0.5 0.0 0.0 0.42 0.0584
MG1 Mg 0.3333 0.6667 -0.25 1.0 0.0343
CA1 Ca 0.5 0.0 0.0 0.03 0.0584
CA2 Ca 0.0 0.0 0.072 0.22 0.2938
SI1 Si 0.1584 0.4902 0.25 0.73 0.0133
SI2 Si 0.3536 0.0933 0.0444 0.73 0.0133
AL1 Al 0.1584 0.4902 0.25 0.27 0.0133
AL2 Al 0.3536 0.0933 0.0444 0.27 0.0133
O1 O 0.2589 0.5178 0.25 1.0 0.0301
O2 O 0.4249 0.8498 0.25 1.0 0.0241
O3 O 0.3822 0.1004 0.25 1.0 0.0271
O4 O 0.4352 0.1114 -0.0721 1.0 0.0287
O5 O 0.1614 0.3228 -0.0016 1.0 0.0248
O6 O 0.2741 0.0 0.0 1.0 0.0300
H2O1 O2-(H2O) 0.467 0.934 0.661 0.5 0.0811
H2O2 O2-(H2O) 0.3333 0.6667 0.016 1.0 0.0545
H2O3 O2-(H2O) 0.271 0.542 -0.25 0.44 0.0684
H2O4 O2-(H2O) 0.566 0.355 0.25 0.44 0.0874
H2O5 O2-(H2O) 0.028 0.148 0.030 0.23 0.0975
H2O6 O2-(H2O) 0.088 0.176 0.25 0.89 0.2761
H2O7 O2-(H2O) 0.076 0.152 -0.25 0.45 0.3952




