data_ZSM-18_SiO2_Framework
_cell_length_a         13.175
_cell_length_b         13.175
_cell_length_c         15.848
_cell_angle_alpha     90
_cell_angle_beta      90
_cell_angle_gamma     120


# setting 
# _symmetry_space_group_name_H-M 'P63/m'


loop_
_symmetry_equiv_pos_as_xyz
'x,y,z'
'x-y,x,z+1/2'
'y,-x+y,z+1/2'
'-y,x-y,z'
'-x+y,-x,z'
'-x,-y,z+1/2'
'-x,-y,-z'
'-x+y,-x,-z-1/2'
'-y,x-y,-z-1/2'
'y,-x+y,-z'
'x-y,x,-z'
'x,y,-z-1/2'


loop_
_atom_site_label
_atom_site_type_sumbol
_atom_site_fract_x
_atom_site_fract_y
_atom_site_fract_z
_atom_site_occupancy
_atom_site_U_iso_or_equiv
SI1 Si 0.6667 0.3333 0.3495 1 0.0000
SI2 Si 0.6713 0.1500 0.4700 1 0.0000
SI3 Si 0.4522 0.1161 0.5682 1 0.0000
SI4 Si 0.5266 0.2118 0.7500 1 0.0000
O1 O 0.6667 0.3333 0.2500 1 0.0000
O2 O 0.6623 0.2169 0.3878 1 0.0000
O3 O 0.5793 0.1388 0.5411 1 0.0000
O4 O 0.4217 0.1984 0.5101 1 0.0000
O5 O 0.4540 0.1495 0.6663 1 0.0000
O6 O 0.6506 0.2126 0.7500 1 0.0000
O7 O 0.6443 0.0200 0.4453 1 0.0000




