data_ZSM-11_Calcined
_cell_length_a         20.067
_cell_length_b         20.067
_cell_length_c         13.411
_cell_angle_alpha     90
_cell_angle_beta      90
_cell_angle_gamma     90


# setting 
# _symmetry_space_group_name_H-M 'I-4m2'


loop_
_symmetry_equiv_pos_as_xyz
'x,y,z'
'y,-x,-z'
'-y,x,-z'
'-x,-y,z'
'y,x,-z'
'-y,-x,-z'
'-x,y,z'
'x,-y,z'
'x+1/2,y+1/2,z+1/2'
'y+1/2,-x+1/2,-z+1/2'
'-y+1/2,x+1/2,-z+1/2'
'-x+1/2,-y+1/2,z+1/2'
'y+1/2,x+1/2,-z+1/2'
'-y+1/2,-x+1/2,-z+1/2'
'-x+1/2,y+1/2,z+1/2'
'x+1/2,-y+1/2,z+1/2'


loop_
_atom_site_label
_atom_site_type_sumbol
_atom_site_fract_x
_atom_site_fract_y
_atom_site_fract_z
_atom_site_occupancy
_atom_site_U_iso_or_equiv
SI1 Si 0.0777 0.0777 0.0000 1.0 0.0043
SI2 Si 0.1212 0.1860 0.1451 1.0 0.0208
SI3 Si 0.0775 0.2219 0.3569 1.0 0.0163
SI4 Si 0.2801 0.1882 0.1403 1.0 0.0049
SI5 Si 0.3053 0.0768 -0.0079 1.0 0.0035
SI6 Si 0.1938 0.1938 0.5 1.0 0.0139
SI7 Si 0.0761 0.3819 0.3589 1.0 0.0001
O1 O 0.0873 0.0 0.0279 1.0 0.0418
O2 O 0.1067 0.1179 0.0975 1.0 0.0358
O3 O 0.0926 0.1856 0.2550 1.0 0.0217
O4 O 0.2018 0.1993 0.1506 1.0 0.0227
O5 O 0.3309 0.1186 0.0889 1.0 0.0205
O6 O 0.3003 0.0 0.0247 1.0 0.0098
O7 O 0.3095 0.1905 0.25 1.0 0.0414
O8 O 0.1204 0.1931 0.4478 1.0 0.0030
O9 O 0.2511 0.1927 0.4252 1.0 0.0181
O10 O 0.0905 0.3010 0.3497 1.0 0.0147
O11 O 0.0 0.2090 0.3875 1.0 0.0442
O12 O 0.0 0.3960 0.3871 1.0 0.0001
O13 O 0.0926 0.2437 0.0900 1.0 0.0201
O14 O 0.1295 0.4078 0.4348 1.0 0.0004
O15 O 0.0875 0.4125 0.25 1.0 0.0001




