data_Melanophlogite
_cell_length_a         13.436
_cell_length_b         13.436
_cell_length_c         13.436
_cell_angle_alpha     90
_cell_angle_beta      90
_cell_angle_gamma     90


# setting 
# _symmetry_space_group_name_H-M 'Pm-3n'


loop_
_symmetry_equiv_pos_as_xyz
'x,y,z'
'x+1/2,-z+1/2,y+1/2'
'x+1/2,z+1/2,-y+1/2'
'z+1/2,y+1/2,-x+1/2'
'-z+1/2,y+1/2,x+1/2'
'-y+1/2,x+1/2,z+1/2'
'y+1/2,-x+1/2,z+1/2'
'z,x,y'
'y,z,x'
'-y,-z,x'
'z,-x,-y'
'-y,z,-x'
'-z,-x,y'
'-z,x,-y'
'y,-z,-x'
'x,-y,-z'
'-x,y,-z'
'-x,-y,z'
'y+1/2,x+1/2,-z+1/2'
'-y+1/2,-x+1/2,-z+1/2'
'z+1/2,-y+1/2,x+1/2'
'-z+1/2,-y+1/2,-x+1/2'
'-x+1/2,z+1/2,y+1/2'
'-x+1/2,-z+1/2,-y+1/2'
'-x,-y,-z'
'-x-1/2,z-1/2,-y-1/2'
'-x-1/2,-z-1/2,y-1/2'
'-z-1/2,-y-1/2,x-1/2'
'z-1/2,-y-1/2,-x-1/2'
'y-1/2,-x-1/2,-z-1/2'
'-y-1/2,x-1/2,-z-1/2'
'-z,-x,-y'
'-y,-z,-x'
'y,z,-x'
'-z,x,y'
'y,-z,x'
'z,x,-y'
'z,-x,y'
'-y,z,x'
'-x,y,z'
'x,-y,z'
'x,y,-z'
'-y-1/2,-x-1/2,z-1/2'
'y-1/2,x-1/2,z-1/2'
'-z-1/2,y-1/2,-x-1/2'
'z-1/2,y-1/2,x-1/2'
'x-1/2,-z-1/2,-y-1/2'
'x-1/2,z-1/2,y-1/2'


loop_
_atom_site_label
_atom_site_type_sumbol
_atom_site_fract_x
_atom_site_fract_y
_atom_site_fract_z
_atom_site_occupancy
_atom_site_U_iso_or_equiv
SI1 Si 0.0 0.3098 0.1142 1.0 0.0217
SI2 Si 0.1826 0.1826 0.1826 1.0 0.0218
SI3 Si 0.25 0.0 0.5 1.0 0.0181
O1 O 0.0963 0.2465 0.1360 1.0 0.0618
O2 O 0.0 0.4056 0.1813 1.0 0.0605
O3 O 0.3423 0.0 0.0 1.0 0.0350
O4 O 0.25 0.25 0.25 1.0 0.0736
C1 C 0.25 0.5 0.0 1.0 0.4986
C2 C 0.0 0.0 0.0 1.0 0.1740




