data_ZSM-5_Calcined
_cell_length_a         19.879
_cell_length_b         20.107
_cell_length_c         13.369
_cell_angle_alpha     90
_cell_angle_beta      90.67
_cell_angle_gamma     90


# setting 
_symmetry_space_group_name_H-M 'P121/n1'


loop_
_symmetry_equiv_pos_as_xyz
'x,y,z'
'-x+1/2,y+1/2,-z+1/2'
'-x,-y,-z'
'x-1/2,-y-1/2,z-1/2'


loop_
_atom_site_label
_atom_site_type_symbol
_atom_site_fract_x
_atom_site_fract_y
_atom_site_fract_z
_atom_site_occupancy
_atom_site_U_iso_or_equiv
SI1 Si 0.05546 0.42056 -0.31990 1.0 0.0033
SI2 Si 0.03090 0.31368 -0.16358 1.0 0.0037
SI3 Si 0.06249 0.27960 0.05346 1.0 0.0037
SI4 Si 0.06233 0.12395 0.03674 1.0 0.0037
SI5 Si 0.02804 0.07678 -0.15797 1.0 0.0033
SI6 Si 0.05585 0.19556 -0.31331 1.0 0.0033
SI7 Si -0.17148 0.42542 -0.31930 1.0 0.0037
SI8 Si -0.12653 0.31225 -0.17388 1.0 0.0037
SI9 Si -0.17590 0.27325 0.03597 1.0 0.0033
SI10 Si -0.17634 0.11895 0.03436 1.0 0.0037
SI11 Si -0.12939 0.07156 -0.17516 1.0 0.0037
SI12 Si -0.16528 0.19079 -0.31408 1.0 0.0037
SI13 Si 0.44297 0.42837 -0.33456 1.0 0.0033
SI14 Si 0.47305 0.31237 -0.18814 1.0 0.0037
SI15 Si 0.43889 0.27704 0.02940 1.0 0.0037
SI16 Si 0.43563 0.12155 0.03380 1.0 0.0037
SI17 Si 0.47315 0.07096 -0.17844 1.0 0.0033
SI18 Si 0.43778 0.18737 -0.31743 1.0 0.0037
SI19 Si 0.67204 0.42389 -0.31417 1.0 0.0033
SI20 Si 0.63130 0.31278 -0.16836 1.0 0.0041
SI21 Si 0.66892 0.27312 0.04608 1.0 0.0037
SI22 Si 0.67007 0.11867 0.03868 1.0 0.0037
SI23 Si 0.63082 0.07268 -0.17757 1.0 0.0041
SI24 Si 0.68070 0.19446 -0.29789 1.0 0.0033
O1 O 0.0588 0.3779 -0.2194 1.0 0.0100
O2 O 0.0662 0.3106 -0.0564 1.0 0.0080
O3 O 0.0472 0.2018 0.0465 1.0 0.0117
O4 O 0.0671 0.1032 -0.0784 1.0 0.0080
O5 O 0.0443 0.1230 -0.2693 1.0 0.0084
O6 O 0.0477 0.2483 -0.2248 1.0 0.0113
O7 O -0.1533 0.3769 -0.2289 1.0 0.0113
O8 O -0.1669 0.3050 -0.0725 1.0 0.0100
O9 O -0.1558 0.1960 0.0316 1.0 0.0096
O10 O -0.1689 0.0885 -0.0753 1.0 0.0113
O11 O -0.1511 0.1208 -0.2630 1.0 0.0110
O12 O -0.1376 0.2483 -0.2424 1.0 0.0120
O13 O -0.0485 0.3189 -0.1490 1.0 0.0130
O14 O -0.0509 0.0781 -0.1529 1.0 0.0094
O15 O 0.1253 0.4145 -0.3771 1.0 0.0104
O16 O -0.0041 0.3923 -0.3892 1.0 0.0110
O17 O -0.1340 0.4022 -0.4186 1.0 0.0090
O18 O 0.1298 0.2003 -0.3583 1.0 0.0080
O19 O 0.0026 0.2099 -0.4008 1.0 0.0104
O20 O -0.1275 0.1948 -0.4188 1.0 0.0086
O21 O 0.0515 0.0032 -0.2041 1.0 0.0073
O22 O -0.1475 -0.0023 -0.2098 1.0 0.0086
O23 O -0.2501 0.4239 -0.3413 1.0 0.0104
O24 O -0.2435 0.1987 -0.3356 1.0 0.0086
O25 O -0.2525 0.2822 0.0676 1.0 0.0077
O26 O -0.2526 0.1101 0.0697 1.0 0.0067
O27 O 0.4503 0.3799 -0.2408 1.0 0.0117
O28 O 0.4480 0.3143 -0.0754 1.0 0.0086
O29 O 0.4318 0.1991 0.0094 1.0 0.0104
O30 O 0.4478 0.0812 -0.0669 1.0 0.0106
O31 O 0.4351 0.1206 -0.2527 1.0 0.0080
O32 O 0.4401 0.2505 -0.2451 1.0 0.0100
O33 O 0.6590 0.3797 -0.2169 1.0 0.0094
O34 O 0.6459 0.3148 -0.0508 1.0 0.0073
O35 O 0.6513 0.1961 0.0270 1.0 0.0086
O36 O 0.6559 0.0822 -0.0653 1.0 0.0117
O37 O 0.6678 0.1232 -0.2504 1.0 0.0117
O38 O 0.6694 0.2497 -0.2144 1.0 0.0106
O39 O 0.5530 0.3054 -0.1913 1.0 0.0133
O40 O 0.5519 0.0851 -0.1834 1.0 0.0106
O41 O 0.3714 0.4186 -0.3885 1.0 0.0113
O42 O 0.5015 0.4154 -0.4135 1.0 0.0096
O43 O 0.6320 0.3938 -0.4087 1.0 0.0094
O44 O 0.3711 0.1900 -0.3847 1.0 0.0084
O45 O 0.5032 0.1862 -0.3863 1.0 0.0094
O46 O 0.6326 0.2074 -0.3914 1.0 0.0117
O47 O 0.4576 -0.0039 -0.2104 1.0 0.0084
O48 O 0.6481 -0.0013 -0.2120 1.0 0.0090




