data_Tetrapropylammonium_ZSM-5
_cell_length_a         20.022
_cell_length_b         19.899
_cell_length_c         13.383
_cell_angle_alpha     90
_cell_angle_beta      90
_cell_angle_gamma     90


# setting 
_symmetry_space_group_name_H-M 'Pnma'


loop_
_symmetry_equiv_pos_as_xyz
'x,y,z'
'x+1/2,-y+1/2,-z+1/2'
'-x,y+1/2,-z'
'-x+1/2,-y,z+1/2'
'-x,-y,-z'
'-x-1/2,y-1/2,z-1/2'
'x,-y-1/2,z'
'x-1/2,y,-z-1/2'


loop_
_atom_site_label
_atom_site_type_symbol
_atom_site_fract_x
_atom_site_fract_y
_atom_site_fract_z
_atom_site_occupancy
_atom_site_U_iso_or_equiv
SI1 Si 0.42238 0.05650 -0.33598 1.0 0.0176
SI2 Si 0.30716 0.02772 -0.18930 1.0 0.0206
SI3 Si 0.27911 0.06127 0.03120 1.0 0.0193
SI4 Si 0.12215 0.06298 0.02670 1.0 0.0181
SI5 Si 0.07128 0.02722 -0.18551 1.0 0.0160
SI6 Si 0.18641 0.05896 -0.32818 1.0 0.0179
SI7 Si 0.42265 -0.17250 -0.32718 1.0 0.0185
SI8 Si 0.30778 -0.13016 -0.18548 1.0 0.0199
SI9 Si 0.27554 -0.17279 0.03109 1.0 0.0176
SI10 Si 0.12058 -0.17310 0.02979 1.0 0.0193
SI11 Si 0.07044 -0.13037 -0.18200 1.0 0.0193
SI12 Si 0.18706 -0.17327 -0.31933 1.0 0.0200
O1 O 0.3726 0.0534 -0.2442 1.0 0.0490
O2 O 0.3084 0.0587 -0.0789 1.0 0.0400
O3 O 0.2007 0.0592 0.0289 1.0 0.0640
O4 O 0.0969 0.0611 -0.0856 1.0 0.0439
O5 O 0.1149 0.0541 -0.2763 1.0 0.0339
O6 O 0.2435 0.0553 -0.2460 1.0 0.0460
O7 O 0.3742 -0.1561 -0.2372 1.0 0.0470
O8 O 0.3085 -0.1552 -0.0728 1.0 0.0439
O9 O 0.1980 -0.1554 0.0288 1.0 0.0400
O10 O 0.0910 -0.1614 -0.0777 1.0 0.0580
O11 O 0.1169 -0.1578 -0.2694 1.0 0.0480
O12 O 0.2448 -0.1594 -0.2422 1.0 0.0550
O13 O 0.3047 -0.0510 -0.1866 1.0 0.0711
O14 O 0.0768 -0.0519 -0.1769 1.0 0.0470
O15 O 0.4161 0.1276 -0.3896 1.0 0.0439
O16 O 0.4086 -0.0017 -0.4136 1.0 0.0460
O17 O 0.4020 -0.1314 -0.4239 1.0 0.0400
O18 O 0.1886 0.1298 -0.3836 1.0 0.0360
O19 O 0.1940 0.0007 -0.4082 1.0 0.0450
O20 O 0.1951 -0.1291 -0.4190 1.0 0.0431
O21 O -0.0037 0.0502 -0.2080 1.0 0.0331
O22 O -0.0040 -0.1528 -0.2078 1.0 0.0400
O23 O 0.4192 -0.2500 -0.3540 1.0 0.0439
O24 O 0.1884 -0.2500 -0.3538 1.0 0.0339
O25 O 0.2883 -0.2500 0.0579 1.0 0.0331
O26 O 0.1085 -0.2500 0.0611 1.0 0.0300
N N 0.4762 0.250 -0.1095 1.0 0.0690
C1 C 0.495 0.233 -0.221 0.3 0.0580
C2 C 0.568 0.250 -0.241 0.6 0.0970
C3 C 0.578 0.250 -0.362 0.6 0.0980
C4 C 0.399 0.274 -0.100 0.3 0.0640
C5 C 0.355 0.228 -0.150 0.3 0.1360
C6 C 0.278 0.250 -0.147 0.6 0.1040
C7 C 0.505 0.319 -0.089 0.3 0.0650
C8 C 0.473 0.334 -0.019 0.3 0.0830
C9 C 0.496 0.412 0.045 0.5 0.0880
C10 C 0.508 0.199 -0.032 0.5 0.1210
C11 C 0.490 0.124 -0.045 0.5 0.1090
C12 C 0.529 0.088 0.033 0.5 0.0719
C21 C 0.413 0.229 -0.166 0.2 0.0830
C22 C 0.355 0.272 -0.150 0.2 0.1360
C23 C 0.285 0.250 -0.195 0.4 0.1101
C24 C 0.534 0.279 -0.185 0.2 0.0670
C25 C 0.546 0.225 -0.263 0.2 0.0730
C26 C 0.601 0.250 -0.332 0.4 0.1291
C27 C 0.468 0.315 -0.060 0.2 0.0610
C28 C 0.516 0.335 0.020 0.2 0.0610




