data_Montesommaite
_cell_length_a         7.141
_cell_length_b         7.141
_cell_length_c         17.307
_cell_angle_alpha     90
_cell_angle_beta      90
_cell_angle_gamma     90


# setting 2
_symmetry_space_group_name_H-M 'I41/amd'


loop_
_symmetry_equiv_pos_as_xyz
'x,y,z'
'-y+1/4,x+3/4,z+1/4'
'y+1/4,-x+1/4,z+3/4'
'x,-y,-z'
'-x,y+1/2,-z'
'-x,-y+1/2,z'
'y+1/4,x+3/4,-z+1/4'
'-y+1/4,-x+1/4,-z+3/4'
'-x,-y,-z'
'y-1/4,-x-3/4,-z-1/4'
'-y-1/4,x-1/4,-z-3/4'
'-x,y,z'
'x,-y-1/2,z'
'x,y-1/2,-z'
'-y-1/4,-x-3/4,z-1/4'
'y-1/4,x-1/4,z-3/4'
'x+1/2,y+1/2,z+1/2'
'-y+3/4,x+5/4,z+3/4'
'y+3/4,-x+3/4,z+5/4'
'x+1/2,-y+1/2,-z+1/2'
'-x+1/2,y+1,-z+1/2'
'-x+1/2,-y+1,z+1/2'
'y+3/4,x+5/4,-z+3/4'
'-y+3/4,-x+3/4,-z+5/4'
'-x+1/2,-y+1/2,-z+1/2'
'y+1/4,-x-1/4,-z+1/4'
'-y+1/4,x+1/4,-z-1/4'
'-x+1/2,y+1/2,z+1/2'
'x+1/2,-y,z+1/2'
'x+1/2,y,-z+1/2'
'-y+1/4,-x-1/4,z+1/4'
'y+1/4,x+1/4,z-1/4'


loop_
_atom_site_label
_atom_site_type_symbol
_atom_site_fract_x
_atom_site_fract_y
_atom_site_fract_z
_atom_site_occupancy
_atom_site_U_iso_or_equiv
K1 K 0.000 0.000 0.500 0.53 0.0250
SI Si 0.000 0.463 0.090 0.706 0.0049
AL Al 0.000 0.463 0.090 0.294 0.0049
O1 O 0.000 0.250 0.116 1.0 0.0149
O2 O 0.186 0.436 0.875 1.0 0.0149
O3 O 0.000 0.000 0.000 1.0 0.0149
H2O1 O2-(H2O) 0.000 0.250 0.342 0.5 0.0149




