data_Mordenite
_cell_length_a         18.11
_cell_length_b         20.53
_cell_length_c         7.528
_cell_angle_alpha     90
_cell_angle_beta      90
_cell_angle_gamma     90


# setting 
# _symmetry_space_group_name_H-M 'Cmcm'


loop_
_symmetry_equiv_pos_as_xyz
'x,y,z'
'x,-y,-z'
'-x,y,-z+1/2'
'-x,-y,z+1/2'
'-x,-y,-z'
'-x,y,z'
'x,-y,z-1/2'
'x,y,-z-1/2'
'x+1/2,y+1/2,z'
'x+1/2,-y+1/2,-z'
'-x+1/2,y+1/2,-z+1/2'
'-x+1/2,-y+1/2,z+1/2'
'-x+1/2,-y+1/2,-z'
'-x+1/2,y+1/2,z'
'x+1/2,-y+1/2,z-1/2'
'x+1/2,y+1/2,-z-1/2'


loop_
_atom_site_label
_atom_site_type_sumbol
_atom_site_fract_x
_atom_site_fract_y
_atom_site_fract_z
_atom_site_occupancy
_atom_site_U_iso_or_equiv
NA1 Na 0.0 0.5 0.0 1.0 0.0317
NA2 Na 0.0 0.4335 0.75 1.0 0.0627
SI1 Si 0.19897 0.42771 0.5418 1.0 0.0174
SI2 Si 0.19656 0.19092 0.5454 1.0 0.0189
SI3 Si 0.0871 0.3840 0.25 0.5 0.0153
SI4 Si 0.0866 0.2280 0.25 0.5 0.0167
AL3 Al 0.0871 0.3840 0.25 0.5 0.0153
AL4 Al 0.0866 0.2280 0.25 0.5 0.0167
O1 O 0.1232 0.4170 0.4292 1.0 0.0391
O2 O 0.1226 0.1946 0.4262 1.0 0.0374
O3 O 0.2632 0.3776 0.4887 1.0 0.0460
O4 O 0.0974 0.3057 0.25 1.0 0.0457
O5 O 0.1694 0.1946 0.75 1.0 0.0458
O6 O 0.1769 0.4212 0.75 1.0 0.0337
O7 O 0.2324 0.5 0.5 1.0 0.0298
O8 O 0.25 0.25 0.5 1.0 0.0598
O9 O 0.0 0.4071 0.25 1.0 0.0275
O10 O 0.0 0.2061 0.25 1.0 0.0380
H2O1 O2-(H2O) 0.040 0.303 0.75 0.5 0.2067
H2O2 O2-(H2O) 0.0 0.181 0.75 1.0 0.1753
H2O3 O2-(H2O) 0.0 0.094 0.502 1.0 0.2700
H2O4 O2-(H2O) 0.109 0.030 0.75 1.0 0.2216
H2O5 O2-(H2O) 0.0 -0.009 0.25 0.25 0.2893




