data_Ammonium_Fluoride_ZSM-23
_cell_length_a         11.129
_cell_length_b         5.025
_cell_length_c         21.519
_cell_angle_alpha     90
_cell_angle_beta      89.85
_cell_angle_gamma     90


# setting 
# _symmetry_space_group_name_H-M 'P1211'


loop_
_symmetry_equiv_pos_as_xyz
'x,y,z'
'-x,y+1/2,-z'


loop_
_atom_site_label
_atom_site_type_sumbol
_atom_site_fract_x
_atom_site_fract_y
_atom_site_fract_z
_atom_site_occupancy
_atom_site_U_iso_or_equiv
SI1 Si -0.009 -0.02 0.4578 1.0 0.0139
SI2 Si 0.726 -0.082 0.425 1.0 0.0139
SI3 Si 0.228 -0.112 0.384 1.0 0.0139
SI4 Si 0.312 0.00 0.251 1.0 0.0139
SI5 Si 0.476 0.503 0.249 1.0 0.0139
SI6 Si 0.346 0.390 0.434 1.0 0.0139
SI7 Si 0.600 0.417 0.378 1.0 0.0139
SI8 Si -0.010 -0.10 0.0422 1.0 0.0139
SI9 Si 0.726 -0.012 0.077 1.0 0.0139
SI10 Si 0.232 -0.077 0.118 1.0 0.0139
SI11 Si 0.355 0.424 0.063 1.0 0.0139
SI12 Si 0.603 0.487 0.120 1.0 0.0139
O1 O 0.012 0.27 0.487 1.0 0.0130
O2 O 0.866 -0.02 0.422 1.0 0.0130
O3 O 0.093 -0.09 0.408 1.0 0.0130
O4 O 0.683 -0.04 0.495 1.0 0.0130
O5 O 0.655 0.122 0.381 1.0 0.0130
O6 O 0.231 -0.05 0.311 1.0 0.0130
O7 O 0.317 0.085 0.419 1.0 0.0130
O8 O 0.368 0.292 0.254 1.0 0.0130
O9 O 0.564 0.49 0.308 1.0 0.0130
O10 O 0.486 0.44 0.423 1.0 0.0130
O11 O 0.866 -0.07 0.079 1.0 0.0130
O12 O 0.100 -0.05 0.089 1.0 0.0130
O13 O 0.679 -0.03 0.008 1.0 0.0130
O14 O 0.226 -0.03 0.192 1.0 0.0130
O15 O 0.553 0.43 0.189 1.0 0.0130
O16 O 0.497 0.46 0.071 1.0 0.0130
O17 O 0.708 0.28 0.103 1.0 0.0130
O18 O 0.322 0.130 0.086 1.0 0.0130
O19 O -0.001 0.11 -0.014 1.0 0.0130
O20 O 0.701 0.621 0.401 1.0 0.0130
O21 O 0.269 0.584 0.392 1.0 0.0130
O22 O 0.422 0.797 0.246 1.0 0.0130
O23 O 0.652 0.786 0.120 1.0 0.0130
O24 O 0.285 0.632 0.106 1.0 0.0130
F1 F 0.938 0.55 0.215 0.86 0.4000
N1 N 0.89 0.06 0.261 0.86 0.4000




