data_Mesolite
_cell_length_a         18.4049
_cell_length_b         56.655
_cell_length_c         6.5443
_cell_angle_alpha     90
_cell_angle_beta      90
_cell_angle_gamma     90


# setting 
# _symmetry_space_group_name_H-M 'Fdd2'


loop_
_symmetry_equiv_pos_as_xyz
'x,y,z'
'-x,-y,z'
'-x+1/4,y+1/4,z+1/4'
'x+1/4,-y+1/4,z+1/4'
'x,y+1/2,z+1/2'
'-x,-y+1/2,z+1/2'
'-x+1/4,y+3/4,z+3/4'
'x+1/4,-y+3/4,z+3/4'
'x+1/2,y,z+1/2'
'-x+1/2,-y,z+1/2'
'-x+3/4,y+1/4,z+3/4'
'x+3/4,-y+1/4,z+3/4'
'x+1/2,y+1/2,z'
'-x+1/2,-y+1/2,z'
'-x+3/4,y+3/4,z+1/4'
'x+3/4,-y+3/4,z+1/4'


loop_
_atom_site_label
_atom_site_type_sumbol
_atom_site_fract_x
_atom_site_fract_y
_atom_site_fract_z
_atom_site_occupancy
_atom_site_U_iso_or_equiv
NA Na 0.96736 0.76089 0.63172 1.0 0.0187
CA Ca 0.22807 0.82737 0.88068 1.0 0.0115
SI1 Si 0.75000 0.75000 0.00000 1.0 0.0070
SI2 Si 0.15499 0.76432 0.87210 1.0 0.0061
SI3 Si 0.90188 0.81979 0.65040 1.0 0.0063
SI4 Si 0.08794 0.84688 0.65213 1.0 0.0066
SI5 Si 0.00435 0.83180 0.27740 1.0 0.0067
AL1 Al 0.78689 0.78025 0.61310 1.0 0.0063
AL2 Al 0.03630 0.80211 0.89287 1.0 0.0066
AL3 Al 0.95155 0.86233 0.89294 1.0 0.0065
O1 O 0.76818 0.77289 0.86482 1.0 0.0130
O2 O 0.02298 0.80800 0.15228 1.0 0.0124
O3 O 0.98498 0.85319 0.12809 1.0 0.0149
O4 O 0.82365 0.80837 0.59682 1.0 0.0089
O5 O 0.07262 0.77385 0.86425 1.0 0.0091
O6 O 0.16644 0.85935 0.67096 1.0 0.0105
O7 O 0.84335 0.75866 0.51529 1.0 0.0127
O8 O 0.09631 0.82339 0.79447 1.0 0.0118
O9 O 0.88933 0.84183 0.80185 1.0 0.0124
O10 O 0.95568 0.80062 0.75319 1.0 0.0134
O11 O 0.20947 0.78462 0.95950 1.0 0.0109
O12 O 0.02193 0.86358 0.71805 1.0 0.0127
O13 O 0.93735 0.82799 0.43383 1.0 0.0138
O14 O 0.18020 0.75695 0.64166 1.0 0.0134
O15 O 0.07638 0.83892 0.41273 1.0 0.0125
H11 H 0.0450 0.7813 0.322 1.0 0.0089
H12 H 0.0881 0.7679 0.420 1.0 0.0114
H21 H 0.7773 0.8037 0.018 1.0 0.0127
H22 H 0.8085 0.8232 0.004 1.0 0.0342
H31 H 0.2274 0.8560 0.247 1.0 0.0266
H32 H 0.1685 0.8438 0.260 1.0 0.0152
H41 H 0.8072 0.8702 0.387 1.0 0.0076
H42 H 0.8615 0.8525 0.359 1.0 0.0253
O21 O 0.05347 0.76839 0.37684 1.0 0.0212
O22 O 0.78167 0.81598 0.07685 1.0 0.0358
O23 O 0.20069 0.84820 0.18338 1.0 0.0312
O24 O 0.81793 0.85687 0.36556 1.0 0.0260




