data_Offretite
_cell_length_a        13.331
_cell_length_b        13.331
_cell_length_c        7.593
_cell_angle_alpha    90
_cell_angle_beta     90
_cell_angle_gamma    120


# setting 
_symmetry_space_group_name_H-M 'P-6m2'


loop_
_symmetry_equiv_pos_as_xyz
'x,y,z'
'-x+y,-x,-z'
'-y,x-y,-z'
'-y,x-y,z'
'-x+y,-x,z'
'-y,-x,-z'
'-x+y,y,-z'
'x,x-y,-z'
'-x+y,y,z'
'x,x-y,z'
'x,y,-z'
'-y,-x,z'


loop_
_atom_site_label
_atom_site_type_symbol
_atom_site_fract_x
_atom_site_fract_y
_atom_site_fract_z
_atom_site_occupancy
_atom_site_U_iso_or_equiv
Si1 Si 0.0007 0.2334 0.2089 0.7 0.0117
Si2 Si 0.0923 0.4236 0.5 0.7 0.0090
Al1 Al 0.0007 0.2334 0.2089 0.3 0.0117
Al2 Al 0.0923 0.4236 0.5 0.3 0.0090
O1 O 0.0243 0.3486 0.3213 1.0 0.0280
O2 O 0.0961 0.9039 0.2558 1.0 0.0218
O3 O 0.8738 0.1262 0.2603 1.0 0.0317
O4 O 0.0103 0.2718 0.0 1.0 0.0312
O5 O 0.2286 0.7714 0.5 1.0 0.0301
O6 O 0.4570 0.5430 0.5 1.0 0.0255
K1 K 0.0 0.0 0.5 1.0 0.0300
Mg1 Mg 0.3333 0.6667 0.0 1.0 0.0205
Ca1 Ca 0.6667 0.3333 0.3947 0.32 0.0285
Ca2 Ca 0.6667 0.3333 0.2812 0.34 0.0837
O7 O 0.3333 0.6667 0.2676 1.0 0.0266
O8 O 0.2446 0.7554 0.0 0.38 0.0489
O9 O 0.1670 0.5266 0.0 0.48 0.0756
O10 O 0.7635 0.2365 0.5 1.0 0.0814
O11 O -0.4369 0.4369 0.1881 1.0 0.1292
O12 O 0.2310 0.2310 0.0 0.17 0.0329




