data_Paulingite
_cell_length_a         35.093
_cell_length_b         35.093
_cell_length_c         35.093
_cell_angle_alpha     90
_cell_angle_beta      90
_cell_angle_gamma     90


# setting 
# _symmetry_space_group_name_H-M 'Im-3m'


loop_
_symmetry_equiv_pos_as_xyz
'x,y,z'
'x,-z,y'
'x,z,-y'
'z,y,-x'
'-z,y,x'
'-y,x,z'
'y,-x,z'
'z,x,y'
'y,z,x'
'-y,-z,x'
'z,-x,-y'
'-y,z,-x'
'-z,-x,y'
'-z,x,-y'
'y,-z,-x'
'x,-y,-z'
'-x,y,-z'
'-x,-y,z'
'y,x,-z'
'-y,-x,-z'
'z,-y,x'
'-z,-y,-x'
'-x,z,y'
'-x,-z,-y'
'-x,-y,-z'
'-x,z,-y'
'-x,-z,y'
'-z,-y,x'
'z,-y,-x'
'y,-x,-z'
'-y,x,-z'
'-z,-x,-y'
'-y,-z,-x'
'y,z,-x'
'-z,x,y'
'y,-z,x'
'z,x,-y'
'z,-x,y'
'-y,z,x'
'-x,y,z'
'x,-y,z'
'x,y,-z'
'-y,-x,z'
'y,x,z'
'-z,y,-x'
'z,y,x'
'x,-z,-y'
'x,z,y'
'x+1/2,y+1/2,z+1/2'
'x+1/2,-z+1/2,y+1/2'
'x+1/2,z+1/2,-y+1/2'
'z+1/2,y+1/2,-x+1/2'
'-z+1/2,y+1/2,x+1/2'
'-y+1/2,x+1/2,z+1/2'
'y+1/2,-x+1/2,z+1/2'
'z+1/2,x+1/2,y+1/2'
'y+1/2,z+1/2,x+1/2'
'-y+1/2,-z+1/2,x+1/2'
'z+1/2,-x+1/2,-y+1/2'
'-y+1/2,z+1/2,-x+1/2'
'-z+1/2,-x+1/2,y+1/2'
'-z+1/2,x+1/2,-y+1/2'
'y+1/2,-z+1/2,-x+1/2'
'x+1/2,-y+1/2,-z+1/2'
'-x+1/2,y+1/2,-z+1/2'
'-x+1/2,-y+1/2,z+1/2'
'y+1/2,x+1/2,-z+1/2'
'-y+1/2,-x+1/2,-z+1/2'
'z+1/2,-y+1/2,x+1/2'
'-z+1/2,-y+1/2,-x+1/2'
'-x+1/2,z+1/2,y+1/2'
'-x+1/2,-z+1/2,-y+1/2'
'-x+1/2,-y+1/2,-z+1/2'
'-x+1/2,z+1/2,-y+1/2'
'-x+1/2,-z+1/2,y+1/2'
'-z+1/2,-y+1/2,x+1/2'
'z+1/2,-y+1/2,-x+1/2'
'y+1/2,-x+1/2,-z+1/2'
'-y+1/2,x+1/2,-z+1/2'
'-z+1/2,-x+1/2,-y+1/2'
'-y+1/2,-z+1/2,-x+1/2'
'y+1/2,z+1/2,-x+1/2'
'-z+1/2,x+1/2,y+1/2'
'y+1/2,-z+1/2,x+1/2'
'z+1/2,x+1/2,-y+1/2'
'z+1/2,-x+1/2,y+1/2'
'-y+1/2,z+1/2,x+1/2'
'-x+1/2,y+1/2,z+1/2'
'x+1/2,-y+1/2,z+1/2'
'x+1/2,y+1/2,-z+1/2'
'-y+1/2,-x+1/2,z+1/2'
'y+1/2,x+1/2,z+1/2'
'-z+1/2,y+1/2,-x+1/2'
'z+1/2,y+1/2,x+1/2'
'x+1/2,-z+1/2,-y+1/2'
'x+1/2,z+1/2,y+1/2'


loop_
_atom_site_label
_atom_site_type_sumbol
_atom_site_fract_x
_atom_site_fract_y
_atom_site_fract_z
_atom_site_occupancy
_atom_site_U_iso_or_equiv
NA1 Na 0.1788 0.1788 0.1788 0.11 0.0304
NA2 Na 0.2543 0.2543 0.0 0.11 0.0380
NA3 Na 0.3975 0.3975 0.1445 0.11 0.0697
K1 K 0.1788 0.1788 0.1788 0.574 0.0304
K2 K 0.2543 0.2543 0.0 0.574 0.0380
K3 K 0.3975 0.3975 0.1445 0.574 0.0697
CA1 Ca 0.1788 0.1788 0.1788 0.304 0.0304
CA2 Ca 0.2543 0.2543 0.0 0.304 0.0380
CA3 Ca 0.3975 0.3975 0.1445 0.304 0.0697
BA1 Ba 0.1788 0.1788 0.1788 0.012 0.0304
BA2 Ba 0.2543 0.2543 0.0 0.012 0.0380
BA3 Ba 0.3975 0.3975 0.1445 0.012 0.0697
SI1 Si 0.3137 0.25 0.1863 0.774 0.0060
SI2 Si 0.4021 0.25 0.0979 0.774 0.0058
SI3 Si 0.3132 0.2498 0.0979 0.774 0.0061
SI4 Si 0.4558 0.1072 0.0443 0.774 0.0068
SI5 Si 0.4019 0.1782 0.0448 0.774 0.0057
SI6 Si 0.3126 0.1785 0.0446 0.774 0.0051
SI7 Si 0.2592 0.1073 0.0445 0.774 0.0046
SI8 Si 0.1708 0.1076 0.0441 0.774 0.0056
AL1 Al 0.3137 0.25 0.1863 0.226 0.0060
AL2 Al 0.4021 0.25 0.0979 0.226 0.0058
AL3 Al 0.3132 0.2498 0.0979 0.226 0.0061
AL4 Al 0.4558 0.1072 0.0443 0.226 0.0068
AL5 Al 0.4019 0.1782 0.0448 0.226 0.0057
AL6 Al 0.3126 0.1785 0.0446 0.226 0.0051
AL7 Al 0.2592 0.1073 0.0445 0.226 0.0046
AL8 Al 0.1708 0.1076 0.0441 0.226 0.0056
O1 O 0.1635 0.0933 0.0 1.0 0.0177
O2 O 0.2679 0.0968 0.0 1.0 0.0165
O3 O 0.3041 0.1886 0.0 1.0 0.0177
O4 O 0.4092 0.1900 0.0 1.0 0.0228
O5 O 0.4484 0.0952 0.0 1.0 0.0203
O6 O 0.4489 0.3794 0.0 1.0 0.0228
O7 O 0.0713 0.0713 0.1610 1.0 0.0177
O8 O 0.4308 0.4308 0.2322 1.0 0.0241
O9 O 0.1437 0.1437 0.0545 1.0 0.0190
O10 O 0.2860 0.2860 0.1965 1.0 0.0203
O11 O 0.2868 0.2868 0.0890 1.0 0.0215
O12 O 0.4299 0.4299 0.0548 1.0 0.0253
O13 O 0.2152 0.1211 0.0496 1.0 0.0152
O14 O 0.2870 0.1414 0.0582 1.0 0.0228
O15 O 0.3573 0.1672 0.0525 1.0 0.0190
O16 O 0.4278 0.1417 0.0573 1.0 0.0291
O17 O 0.3002 0.2163 0.0693 1.0 0.0241
O18 O 0.4148 0.2142 0.0710 1.0 0.0241
O19 O 0.3576 0.2623 0.0909 1.0 0.0203
O20 O 0.3080 0.2351 0.1419 1.0 0.0190
H2O1 O2-(H2O) 0.140 0.140 0.140 1.0 0.0722
H2O2 O2-(H2O) 0.217 0.217 0.217 1.0 0.0532
H2O3 O2-(H2O) 0.209 0.209 0.053 1.0 0.0785
H2O4 O2-(H2O) 0.348 0.348 0.200 1.0 0.0697
H2O5 O2-(H2O) 0.350 0.350 0.082 1.0 0.1456
H2O6 O2-(H2O) 0.220 0.220 0.140 1.0 0.1900
H2O7 O2-(H2O) 0.139 0.139 0.217 1.0 0.1900
H2O8 O2-(H2O) 0.334 0.275 0.0 1.0 0.1900
H2O9 O2-(H2O) 0.422 0.285 0.0 1.0 0.1900
H2O10 O2-(H2O) 0.292 0.5 0.0 1.0 0.1900
H2O11 O2-(H2O) 0.367 0.367 0.0 1.0 0.1900
H2O12 O2-(H2O) 0.178 0.0 0.0 1.0 0.1900
H2O13 O2-(H2O) 0.270 0.0 0.0 1.0 0.1900
H2O14 O2-(H2O) 0.458 0.0 0.0 1.0 0.1900




