data_Phillipsite
_cell_length_a         9.865
_cell_length_b         14.300
_cell_length_c         8.668
_cell_angle_alpha     90
_cell_angle_beta      124.20
_cell_angle_gamma     90


# setting 
_symmetry_space_group_name_H-M 'P121/m1'


loop_
_symmetry_equiv_pos_as_xyz
'x,y,z'
'-x,y+1/2,-z'
'-x,-y,-z'
'x,-y-1/2,z'


loop_
_atom_site_label
_atom_site_type_symbol
_atom_site_fract_x
_atom_site_fract_y
_atom_site_fract_z
_atom_site_occupancy
_atom_site_U_iso_or_equiv
K1 K 0.8480 0.2500 0.2076 1.0 0.0304
CA Ca 0.6080 0.6262 0.4401 0.412 0.0271
SI1 Si 0.7362 0.0248 0.2805 0.669 0.0137
SI2 Si 0.4206 0.1409 0.0019 0.669 0.0134
SI3 Si 0.0604 0.0078 0.2844 0.669 0.0141
SI4 Si 0.1204 0.1396 0.0421 0.669 0.0144
AL1 Al 0.7362 0.0248 0.2805 0.331 0.0137
AL2 Al 0.4206 0.1409 0.0019 0.331 0.0134
AL3 Al 0.0604 0.0078 0.2844 0.331 0.0141
AL4 Al 0.1204 0.1396 0.0421 0.331 0.0144
O1 O 0.1335 0.0976 0.2289 1.0 0.0258
O2 O 0.6445 0.5766 0.1878 1.0 0.0246
O3 O 0.6100 0.1130 0.1728 1.0 0.0239
O4 O 0.0254 0.9154 0.1494 1.0 0.0234
O5 O 0.8957 0.0440 0.2713 1.0 0.0261
O6 O 0.3022 0.3738 0.0783 1.0 0.0294
O7 O 0.7872 0.4795 0.4982 1.0 0.0241
O8 O 0.5814 0.7500 0.0616 1.0 0.0246
O9 O 0.0665 0.2500 0.0196 1.0 0.0269
H2O1 O2-(H2O) 0.7551 0.7500 0.4733 1.0 0.0988
H2O2 O2-(H2O) 0.1552 0.7500 0.4382 1.0 0.0925
H2O3 O2-(H2O) 0.3208 0.8525 0.1740 1.0 0.1115
H2O4 O2-(H2O) 0.5085 0.2500 0.4384 1.0 0.2368
H2O5 O2-(H2O) 0.5 0.5 0.5 1.0 0.2102




