data_Harmotome
_cell_length_a         9.879
_cell_length_b         14.139
_cell_length_c         8.693
_cell_angle_alpha     90
_cell_angle_beta      124.81
_cell_angle_gamma     90


# setting 
_symmetry_space_group_name_H-M 'P121/m1'


loop_
_symmetry_equiv_pos_as_xyz
'x,y,z'
'-x,y+1/2,-z'
'-x,-y,-z'
'x,-y-1/2,z'


loop_
_atom_site_label
_atom_site_type_symbol
_atom_site_fract_x
_atom_site_fract_y
_atom_site_fract_z
_atom_site_occupancy
_atom_site_U_iso_or_equiv
BA Ba 0.86290 0.25 0.19441 1.0 0.0227
CA Ca 0.5869 0.6286 0.4799 0.15 0.0000
SI1 Si 0.7367 0.0248 0.2840 0.75 0.0104
SI2 Si 0.4214 0.1410 0.0136 0.75 0.0098
SI3 Si 0.0577 0.0075 0.2898 0.75 0.0099
SI4 Si 0.1216 0.1390 0.0375 0.75 0.0108
AL1 Al 0.7367 0.0248 0.2840 0.25 0.0104
AL2 Al 0.4214 0.1410 0.0136 0.25 0.0098
AL3 Al 0.0577 0.0075 0.2898 0.25 0.0099
AL4 Al 0.1216 0.1390 0.0375 0.25 0.0108
O1 O 0.1042 0.0896 0.1958 1.0 0.0310
O2 O 0.6470 0.5726 0.1679 1.0 0.0228
O3 O 0.6163 0.1186 0.1792 1.0 0.0200
O4 O 0.0050 0.9083 0.1711 1.0 0.0260
O5 O 0.9057 0.0515 0.2955 1.0 0.0186
O6 O 0.3137 0.3709 0.1017 1.0 0.0233
O7 O 0.7808 0.4856 0.4976 1.0 0.0213
O8 O 0.5885 0.75 0.0573 1.0 0.0223
O9 O 0.0661 0.25 0.0256 1.0 0.0252
H2O1 O2-(H2O) 0.8004 0.75 0.4889 1.0 0.0697
H2O2 O2-(H2O) 0.1148 0.75 0.4593 1.0 0.0608
H2O3 O2-(H2O) 0.3027 0.8628 0.1324 1.0 0.0735
H2O4 O2-(H2O) 0.4611 0.75 0.5134 1.0 0.5953
H2O5 O2-(H2O) 0.5 0.5 0.5 1.0 0.4433




