data_Rho_Hydrated
_cell_length_a         15.031
_cell_length_b         15.031
_cell_length_c         15.031
_cell_angle_alpha     90
_cell_angle_beta      90
_cell_angle_gamma     90


# setting 
_symmetry_space_group_name_H-M 'Im-3m'


loop_
_symmetry_equiv_pos_as_xyz
'x,y,z'
'x,-z,y'
'x,z,-y'
'z,y,-x'
'-z,y,x'
'-y,x,z'
'y,-x,z'
'z,x,y'
'y,z,x'
'-y,-z,x'
'z,-x,-y'
'-y,z,-x'
'-z,-x,y'
'-z,x,-y'
'y,-z,-x'
'x,-y,-z'
'-x,y,-z'
'-x,-y,z'
'y,x,-z'
'-y,-x,-z'
'z,-y,x'
'-z,-y,-x'
'-x,z,y'
'-x,-z,-y'
'-x,-y,-z'
'-x,z,-y'
'-x,-z,y'
'-z,-y,x'
'z,-y,-x'
'y,-x,-z'
'-y,x,-z'
'-z,-x,-y'
'-y,-z,-x'
'y,z,-x'
'-z,x,y'
'y,-z,x'
'z,x,-y'
'z,-x,y'
'-y,z,x'
'-x,y,z'
'x,-y,z'
'x,y,-z'
'-y,-x,z'
'y,x,z'
'-z,y,-x'
'z,y,x'
'x,-z,-y'
'x,z,y'
'x+1/2,y+1/2,z+1/2'
'x+1/2,-z+1/2,y+1/2'
'x+1/2,z+1/2,-y+1/2'
'z+1/2,y+1/2,-x+1/2'
'-z+1/2,y+1/2,x+1/2'
'-y+1/2,x+1/2,z+1/2'
'y+1/2,-x+1/2,z+1/2'
'z+1/2,x+1/2,y+1/2'
'y+1/2,z+1/2,x+1/2'
'-y+1/2,-z+1/2,x+1/2'
'z+1/2,-x+1/2,-y+1/2'
'-y+1/2,z+1/2,-x+1/2'
'-z+1/2,-x+1/2,y+1/2'
'-z+1/2,x+1/2,-y+1/2'
'y+1/2,-z+1/2,-x+1/2'
'x+1/2,-y+1/2,-z+1/2'
'-x+1/2,y+1/2,-z+1/2'
'-x+1/2,-y+1/2,z+1/2'
'y+1/2,x+1/2,-z+1/2'
'-y+1/2,-x+1/2,-z+1/2'
'z+1/2,-y+1/2,x+1/2'
'-z+1/2,-y+1/2,-x+1/2'
'-x+1/2,z+1/2,y+1/2'
'-x+1/2,-z+1/2,-y+1/2'
'-x+1/2,-y+1/2,-z+1/2'
'-x+1/2,z+1/2,-y+1/2'
'-x+1/2,-z+1/2,y+1/2'
'-z+1/2,-y+1/2,x+1/2'
'z+1/2,-y+1/2,-x+1/2'
'y+1/2,-x+1/2,-z+1/2'
'-y+1/2,x+1/2,-z+1/2'
'-z+1/2,-x+1/2,-y+1/2'
'-y+1/2,-z+1/2,-x+1/2'
'y+1/2,z+1/2,-x+1/2'
'-z+1/2,x+1/2,y+1/2'
'y+1/2,-z+1/2,x+1/2'
'z+1/2,x+1/2,-y+1/2'
'z+1/2,-x+1/2,y+1/2'
'-y+1/2,z+1/2,x+1/2'
'-x+1/2,y+1/2,z+1/2'
'x+1/2,-y+1/2,z+1/2'
'x+1/2,y+1/2,-z+1/2'
'-y+1/2,-x+1/2,z+1/2'
'y+1/2,x+1/2,z+1/2'
'-z+1/2,y+1/2,-x+1/2'
'z+1/2,y+1/2,x+1/2'
'x+1/2,-z+1/2,-y+1/2'
'x+1/2,z+1/2,y+1/2'


loop_
_atom_site_label
_atom_site_type_symbol
_atom_site_fract_x
_atom_site_fract_y
_atom_site_fract_z
_atom_site_occupancy
_atom_site_U_iso_or_equiv
NA1 Na 0.2768 0.2768 0.2768 0.180 0.0798
CS1 Cs 0.0 0.0 0.3554 0.260 0.0038
SI1 Si 0.25 0.1042 0.3958 0.749 0.0405
AL1 Al 0.25 0.1042 0.3958 0.251 0.0405
O1 O 0.2107 0.0 0.3834 1.0 0.0709
O2 O 0.1652 0.1652 0.3654 1.0 0.0709
H2O1 O2-(H2O) 0.0749 0.2096 0.2096 0.204 0.0697
H2O2 O2-(H2O) 0.0542 0.0542 0.2756 0.504 0.1900
H2O3 O2-(H2O) 0.0636 0.1180 0.1735 0.305 0.1900
H2O4 O2-(H2O) 0.0 0.0 0.4295 0.717 0.1900
H2O5 O2-(H2O) 0.0 0.0 0.0 0.70 0.1900




