data_Roggianite
_cell_length_a         18.33
_cell_length_b         18.33
_cell_length_c         9.16
_cell_angle_alpha     90
_cell_angle_beta      90
_cell_angle_gamma     90


# setting 
_symmetry_space_group_name_H-M 'I4/mcm'


loop_
_symmetry_equiv_pos_as_xyz
'x,y,z'
'-y,x,z'
'y,-x,z'
'x,-y,-z+1/2'
'-x,y,-z+1/2'
'-x,-y,z'
'y,x,-z+1/2'
'-y,-x,-z+1/2'
'-x,-y,-z'
'y,-x,-z'
'-y,x,-z'
'-x,y,z-1/2'
'x,-y,z-1/2'
'x,y,-z'
'-y,-x,z-1/2'
'y,x,z-1/2'
'x+1/2,y+1/2,z+1/2'
'-y+1/2,x+1/2,z+1/2'
'y+1/2,-x+1/2,z+1/2'
'x+1/2,-y+1/2,-z+1'
'-x+1/2,y+1/2,-z+1'
'-x+1/2,-y+1/2,z+1/2'
'y+1/2,x+1/2,-z+1'
'-y+1/2,-x+1/2,-z+1'
'-x+1/2,-y+1/2,-z+1/2'
'y+1/2,-x+1/2,-z+1/2'
'-y+1/2,x+1/2,-z+1/2'
'-x+1/2,y+1/2,z'
'x+1/2,-y+1/2,z'
'x+1/2,y+1/2,-z+1/2'
'-y+1/2,-x+1/2,z'
'y+1/2,x+1/2,z'


loop_
_atom_site_label
_atom_site_type_symbol
_atom_site_fract_x
_atom_site_fract_y
_atom_site_fract_z
_atom_site_occupancy
_atom_site_U_iso_or_equiv
Ca1 Ca 0.1769 0.1769 0.25 1.0 0.0170
SI1 Si 0.1044 0.2810 0.0 1.0 0.0120
SI2 Si 0.1159 0.0408 0.0 1.0 0.0100
BE1 Be 0.2619 0.2381 0.0000 1.0 0.0180
AL1 Al 0.2177 0.0000 0.25 1.0 0.0110
O1 O 0.1353 0.3647 0.0000 1.0 0.0160
O2 O 0.1641 0.0579 0.1457 1.0 0.0160
O3 O 0.0579 0.2673 0.1461 1.0 0.0220
O4 O 0.0451 0.0936 0.0000 1.0 0.0210
O5 O 0.1725 0.2246 0.0 1.0 0.0149
O6 O 0.2935 0.2065 0.1512 1.0 0.0170
H1 H 0.324 0.176 0.145 1.0 0.0300
H2O1 O2-(H2O) 0.445 0.055 0.264 0.41 0.2200
H2O2 O2-(H2O) 0.375 0.079 0.0 0.27 0.1299
H2O1 O2-(H2O) 0.445 0.055 0.264 0.41 0.2200




