data_RUB-13
_cell_length_a         9.659
_cell_length_b         20.461
_cell_length_c         9.831
_cell_angle_alpha     90
_cell_angle_beta      96.58
_cell_angle_gamma     90


# setting 
_symmetry_space_group_name_H-M 'C12/m1'


loop_
_symmetry_equiv_pos_as_xyz
'x,y,z'
'-x,y,-z'
'-x,-y,-z'
'x,-y,z'
'x+1/2,y+1/2,z'
'-x+1/2,y+1/2,-z'
'-x+1/2,-y+1/2,-z'
'x+1/2,-y+1/2,z'


loop_
_atom_site_label
_atom_site_type_symbol
_atom_site_fract_x
_atom_site_fract_y
_atom_site_fract_z
_atom_site_occupancy
_atom_site_U_iso_or_equiv
T1 Si(T) -0.00071 0.32074 0.34243 0.969 0.0122
T2 Si(T) 0.40984 0.07574 0.12008 0.969 0.0153
T3 Si(T) 0.25048 0.26603 0.21513 0.969 0.0174
T4 Si(T) 0.15487 0.15272 0.01508 0.969 0.0214
O1 O 0.0 0.34053 0.5 1.0 0.0223
O2 O 0.0 0.12655 0.0 1.0 0.0246
O3 O 0.151 0.29265 0.3211 1.0 0.0262
O4 O 0.16628 0.21447 0.11538 1.0 0.0328
O5 O 0.25098 0.09473 0.07707 1.0 0.0281
O6 O 0.31018 0.32663 0.12877 1.0 0.0308
O7 O -0.11737 0.26658 0.30066 1.0 0.0329
O8 O 0.42048 0.0 0.15383 1.0 0.0291
O9 O -0.03047 0.38601 0.25539 1.0 0.0320
O10 O 0.5 0.09471 0.0 1.0 0.0339




