data_Magnesium_STA-7
_cell_length_a        18.7732
_cell_length_b        18.7732
_cell_length_c        9.4537
_cell_angle_alpha    90
_cell_angle_beta     90
_cell_angle_gamma    90


# setting 2
# _symmetry_space_group_name_H-M 'P4/n'


loop_
_symmetry_equiv_pos_as_xyz
'x,y,z'
'-y+1/2,x,z'
'y,-x+1/2,z'
'-x+1/2,-y+1/2,z'
'-x,-y,-z'
'y-1/2,-x,-z'
'-y,x-1/2,-z'
'x-1/2,y-1/2,-z'


loop_
_atom_site_label
_atom_site_type_sumbol
_atom_site_fract_x
_atom_site_fract_y
_atom_site_fract_z
_atom_site_occupancy
_atom_site_U_iso_or_equiv
Al1 Al 0.06412 0.66568 0.08090 0.8 0.0258
Al2 Al 0.95577 0.83599 0.84220 0.8 0.0270
Al3 Al 0.94930 0.43481 0.33580 0.8 0.0252
Mg1 Mg 0.06412 0.66568 0.08090 0.2 0.0258
Mg2 Mg 0.95577 0.83599 0.84220 0.2 0.0270
Mg3 Mg 0.94930 0.43481 0.33580 0.2 0.0252
P1 P 0.06413 0.55768 0.33630 1.0 0.0269
P2 P 0.94979 0.66685 0.83780 1.0 0.0269
P3 P 0.06624 0.83420 0.09420 1.0 0.0272
O1 O 0.05740 0.62430 0.24630 1.0 0.0479
O2 O 0.07540 0.58070 0.48780 1.0 0.0472
O3 O 0.12730 0.51280 0.29030 1.0 0.0465
O4 O 0.99500 0.51620 0.32390 1.0 0.0481
O5 O 0.98490 0.65670 0.98110 1.0 0.0456
O6 O 0.99740 0.63590 0.72250 1.0 0.0456
O7 O 0.87790 0.62920 0.84020 1.0 0.0494
O8 O 0.93760 0.74420 0.80680 1.0 0.0519
O9 O 0.99790 0.84490 0.01270 1.0 0.0491
O10 O 0.12970 0.86300 0.01460 1.0 0.0458
O11 O 0.05990 0.87030 0.23630 1.0 0.0524
O12 O 0.07950 0.75560 0.12070 1.0 0.0503




