data_UCSB-8Co
_cell_length_a        19.0654
_cell_length_b        19.0654
_cell_length_c        27.594
_cell_angle_alpha    90
_cell_angle_beta     90
_cell_angle_gamma    90


# setting 2
_symmetry_space_group_name_H-M 'P4/nnc'


loop_
_symmetry_equiv_pos_as_xyz
'x,y,z'
'-y+1/2,x,z'
'y,-x+1/2,z'
'x,-y+1/2,-z+1/2'
'-x+1/2,y,-z+1/2'
'-x+1/2,-y+1/2,z'
'y,x,-z+1/2'
'-y+1/2,-x+1/2,-z+1/2'
'-x,-y,-z'
'y-1/2,-x,-z'
'-y,x-1/2,-z'
'-x,y-1/2,z-1/2'
'x-1/2,-y,z-1/2'
'x-1/2,y-1/2,-z'
'-y,-x,z-1/2'
'y-1/2,x-1/2,z-1/2'


loop_
_atom_site_label
_atom_site_type_symbol
_atom_site_fract_x
_atom_site_fract_y
_atom_site_fract_z
_atom_site_occupancy
_atom_site_U_iso_or_equiv
Al1 Al 0.4567 0.1672 0.5127 0.50 0.0291
Co1 Co 0.4567 0.1672 0.5127 0.50 0.0291
Al2 Al 0.3317 0.0477 0.8051 0.50 0.0304
Co2 Co 0.3317 0.0477 0.8051 0.50 0.0304
Al3 Al 0.3269 -0.0423 0.5995 0.50 0.0291
Co3 Co 0.3269 -0.0423 0.5995 0.50 0.0291
Al4 Al 0.4015 -0.1712 0.9551 0.50 0.0304
Co4 Co 0.4015 -0.1712 0.9551 0.50 0.0304
P1 P 0.3358 0.0490 0.5055 1.0 0.0329
P2 P 0.3335 0.0501 0.6916 1.0 0.0266
P3 P 0.3381 -0.0486 0.8941 1.0 0.0304
P4 P 0.3991 -0.1636 0.5484 1.0 0.0304
O1 O 0.3443 0.0224 0.7421 1.0 0.0380
O2 O 0.3817 0.1116 0.4947 1.0 0.0608
O3 O 0.3797 -0.1151 0.9041 1.0 0.0570
O4 O 0.3798 -0.1174 0.5918 1.0 0.0494
O5 O 0.3495 -0.0085 0.6576 1.0 0.0545
O6 O 0.3491 -0.0278 0.8419 1.0 0.0481
O7 O 0.3475 -0.1555 0.0081 1.0 0.0494
O8 O 0.3524 0.0209 0.5559 1.0 0.0494
O9 O 0.3808 0.1121 0.6815 1.0 0.0621
O10 O 0.5292 0.1415 0.4681 1.0 0.0545
O11 O 0.3969 -0.2397 0.5644 1.0 0.0570
O12 O 0.2391 -0.0627 0.5963 1.0 0.0608
O13 O 0.2585 0.0743 0.6842 1.0 0.0405
O14 O 0.4306 0.2596 0.5031 1.0 0.0545
O15 O 0.3519 -0.0073 0.4685 1.0 0.0545
O16 O 0.4888 0.1397 0.5740 1.0 0.0570
N1 N 0.4831 0.0187 0.4150 1.0 0.0773
C1 C 0.4727 0.0323 0.3615 1.0 0.0975
C2 C 0.4080 0.1047 0.3607 1.0 0.0279




