data_UCSB-6GaCo
_cell_length_a        17.8356
_cell_length_b        17.8356
_cell_length_c        27.1816
_cell_angle_alpha    90
_cell_angle_beta     90
_cell_angle_gamma    120


# setting 
_symmetry_space_group_name_H-M 'P-31c'


loop_
_symmetry_equiv_pos_as_xyz
'x,y,z'
'-y,x-y,z'
'-x+y,-x,z'
'-y,-x,-z+1/2'
'-x+y,y,-z+1/2'
'x,x-y,-z+1/2'
'-x,-y,-z'
'y,-x+y,-z'
'x-y,x,-z'
'y,x,z-1/2'
'x-y,-y,z-1/2'
'-x,-x+y,z-1/2'


loop_
_atom_site_label
_atom_site_type_symbol
_atom_site_fract_x
_atom_site_fract_y
_atom_site_fract_z
_atom_site_occupancy
_atom_site_U_iso_or_equiv
Ga1 Ga -0.1059 0.2593 0.5978 1.0 0.0393
Ga2 Ga -0.3132 -0.0696 0.5392 1.0 0.0355
Co3 Co -0.3324 0.1607 0.6925 1.0 0.0228
Co4 Co 0.1597 0.4754 0.4858 1.0 0.0291
P1 P 0.0636 0.3015 0.5490 1.0 0.0253
P2 P -0.2758 0.0833 0.6104 1.0 0.0304
P3 P 0.3445 0.4963 0.4890 1.0 0.0304
P4 P -0.1572 0.3339 0.6866 1.0 0.0279
O1 O -0.1815 0.1465 0.6031 1.0 0.1077
O2 O -0.0993 0.3059 0.6604 1.0 0.0469
O3 O -0.3021 0.0832 0.6645 1.0 0.0684
O4 O -0.4440 0.1312 0.6708 1.0 0.0494
O5 O 0.1005 0.3966 0.5389 1.0 0.0443
O6 O 0.0043 0.2744 0.5940 1.0 0.0367
O7 O -0.2905 -0.0069 0.5983 1.0 0.0481
O8 O 0.2840 0.5324 0.4864 1.0 0.0532
O9 O 0.3446 0.4533 0.4400 1.0 0.0431
O10 O -0.2789 -0.1458 0.5616 1.0 0.0494
O11 O -0.3289 0.1432 0.7592 1.0 0.0583
O12 O 0.1071 0.4363 0.4219 1.0 0.0507
O13 O -0.2515 0.2760 0.6719 1.0 0.0507
O14 O 0.1302 0.5642 0.5001 1.0 0.0443
O15 O 0.3173 0.4293 0.5305 1.0 0.0545
O16 O -0.2357 0.0127 0.4954 1.0 0.0507
N1 N -0.3333 0.3333 0.5967 1.0 0.0545
N2 N 0.0266 0.5103 0.5912 1.0 0.0557
C3 C 0.0863 0.5395 0.6361 1.0 0.1381
C4 C 0.3333 0.6667 0.5770 1.0 0.2216
O17 O -0.1496 0.1913 0.5275 1.0 0.1305




