data_UCSB-10GaZn
_cell_length_a        18.0804
_cell_length_b        18.0804
_cell_length_c        41.9511
_cell_angle_alpha    90
_cell_angle_beta     90
_cell_angle_gamma    120


# setting H
_symmetry_space_group_name_H-M 'R-3'


loop_
_symmetry_equiv_pos_as_xyz
'x,y,z'
'-y,x-y,z'
'-x+y,-x,z'
'-x,-y,-z'
'y,-x+y,-z'
'x-y,x,-z'
'x+1/3,y+2/3,z+2/3'
'-y+1/3,x-y+2/3,z+2/3'
'-x+y+1/3,-x+2/3,z+2/3'
'-x+1/3,-y+2/3,-z+2/3'
'y+1/3,-x+y+2/3,-z+2/3'
'x-y+1/3,x+2/3,-z+2/3'
'x+2/3,y+1/3,z+1/3'
'-y+2/3,x-y+1/3,z+1/3'
'-x+y+2/3,-x+1/3,z+1/3'
'-x+2/3,-y+1/3,-z+1/3'
'y+2/3,-x+y+1/3,-z+1/3'
'x-y+2/3,x+1/3,-z+1/3'


loop_
_atom_site_label
_atom_site_type_symbol
_atom_site_fract_x
_atom_site_fract_y
_atom_site_fract_z
_atom_site_occupancy
_atom_site_U_iso_or_equiv
Zn1 Zn 0.8424 0.3247 -0.0100 1.0 0.0241
Zn2 Zn 0.5111 0.8371 0.1286 1.0 0.0215
Ga3 Ga 0.7579 0.0668 0.0283 1.0 0.0215
Ga4 Ga 0.0998 0.3663 0.0679 1.0 0.0279
P5 P 0.1544 0.4958 0.1257 1.0 0.0215
P6 P 0.8467 0.5083 -0.0071 1.0 0.0228
P7 P 0.9384 0.2394 0.0315 1.0 0.0203
P8 P 0.6378 0.9116 0.0709 1.0 0.0228
O1 O 0.9897 0.2715 0.0634 1.0 0.0342
O2 O 0.8712 0.1447 0.0378 1.0 0.0355
O3 O 0.7166 0.0023 0.0655 1.0 0.0367
O4 O 0.8693 0.4399 0.0021 1.0 0.0355
O5 O 0.8991 0.2943 0.0229 1.0 0.0380
O6 O 0.0990 0.4105 0.1077 1.0 0.0418
O7 O 0.6173 0.9034 0.1071 1.0 0.0355
O8 O 0.1818 0.3362 0.0595 1.0 0.0456
O9 O 0.4685 0.7195 0.1183 1.0 0.0469
O10 O 0.5324 0.8575 0.1724 1.0 0.0494
O11 O 0.6965 0.1221 0.0207 1.0 0.0393
O12 O 0.4312 0.8690 0.1134 1.0 0.0405
O13 O 0.7589 0.9997 -0.0051 1.0 0.0355
O14 O 0.7192 0.2499 -0.0127 1.0 0.0443
O15 O 0.1045 0.4472 0.0383 1.0 0.0418
O16 O 0.9003 0.3389 -0.0512 1.0 0.0443
N1 N 0.3333 0.6667 0.0655 1.0 0.0659
N2 N 0.5103 0.0289 0.0608 1.0 0.0595
C1 C 0.3333 0.6667 0.1050 1.0 0.0532
C2 C 0.5501 0.0936 0.0891 1.0 0.1672
C3 C 0.6667 0.3333 0.0461 1.0 0.1254




