data_1-aminoadamantane_Sigma-2
_cell_length_a         10.2387
_cell_length_b         10.2387
_cell_length_c         34.3829
_cell_angle_alpha     90
_cell_angle_beta      90
_cell_angle_gamma     90


# setting 2
_symmetry_space_group_name_H-M 'I41/amd'


loop_
_symmetry_equiv_pos_as_xyz
'x,y,z'
'-y+1/4,x+3/4,z+1/4'
'y+1/4,-x+1/4,z+3/4'
'x,-y,-z'
'-x,y+1/2,-z'
'-x,-y+1/2,z'
'y+1/4,x+3/4,-z+1/4'
'-y+1/4,-x+1/4,-z+3/4'
'-x,-y,-z'
'y-1/4,-x-3/4,-z-1/4'
'-y-1/4,x-1/4,-z-3/4'
'-x,y,z'
'x,-y-1/2,z'
'x,y-1/2,-z'
'-y-1/4,-x-3/4,z-1/4'
'y-1/4,x-1/4,z-3/4'
'x+1/2,y+1/2,z+1/2'
'-y+3/4,x+5/4,z+3/4'
'y+3/4,-x+3/4,z+5/4'
'x+1/2,-y+1/2,-z+1/2'
'-x+1/2,y+1,-z+1/2'
'-x+1/2,-y+1,z+1/2'
'y+3/4,x+5/4,-z+3/4'
'-y+3/4,-x+3/4,-z+5/4'
'-x+1/2,-y+1/2,-z+1/2'
'y+1/4,-x-1/4,-z+1/4'
'-y+1/4,x+1/4,-z-1/4'
'-x+1/2,y+1/2,z+1/2'
'x+1/2,-y,z+1/2'
'x+1/2,y,-z+1/2'
'-y+1/4,-x-1/4,z+1/4'
'y+1/4,x+1/4,z-1/4'


loop_
_atom_site_label
_atom_site_type_symbol
_atom_site_fract_x
_atom_site_fract_y
_atom_site_fract_z
_atom_site_occupancy
_atom_site_U_iso_or_equiv
SI1 Si 0.2843 0.2500 0.1182 1.0 0.0010
SI2 Si 0.2811 0.0000 0.0000 1.0 0.0020
SI3 Si 0.1539 0.2500 0.0349 1.0 0.0010
SI4 Si 0.1510 0.2500 0.1954 1.0 0.0030
O1 O 0.0000 0.2500 0.2072 1.0 0.0130
O2 O 0.2165 0.1201 0.2131 1.0 0.0130
O3 O 0.2297 0.2500 0.0754 1.0 0.0041
O4 O 0.1689 0.2500 0.1493 1.0 0.0070
O5 O 0.0000 0.2500 0.043 1.0 0.0190
O6 O 0.1913 0.1219 0.010 1.0 0.0080
O7 O 0.3729 0.1229 0.125 1.0 0.0210
C1 C 0.124 -0.126 0.125 0.3 0.1001
C2 C 0.000 -0.250 0.073 0.3 0.1001
C3 C 0.000 -0.126 0.099 0.3 0.1001
C4 C 0.000 -0.003 0.103 0.46 0.1001
C5 C 0.115 -0.151 0.086 0.53 0.1001
C6 C 0.000 -0.077 0.145 0.47 0.1001




