data_Tugtupite
_cell_length_a         8.640
_cell_length_b         8.640
_cell_length_c         8.873
_cell_angle_alpha     90
_cell_angle_beta      90
_cell_angle_gamma     90


# setting 
_symmetry_space_group_name_H-M 'I-4'


loop_
_symmetry_equiv_pos_as_xyz
'x,y,z'
'y,-x,-z'
'-y,x,-z'
'-x,-y,z'
'x+1/2,y+1/2,z+1/2'
'y+1/2,-x+1/2,-z+1/2'
'-y+1/2,x+1/2,-z+1/2'
'-x+1/2,-y+1/2,z+1/2'


loop_
_atom_site_label
_atom_site_type_symbol
_atom_site_fract_x
_atom_site_fract_y
_atom_site_fract_z
_atom_site_occupancy
_atom_site_U_iso_or_equiv
NA1 Na 0.1563 0.1972 0.1818 1.0 0.0187
CL1 Cl 0.0 0.0 0.0 1.0 0.0234
SI1 Si 0.0127 0.2533 0.4958 1.0 0.0073
AL1 Al 0.0 0.5 0.75 1.0 0.0076
BE1 Be 0.0 0.5 0.25 1.0 0.0098
O1 O 0.1504 0.1343 0.4417 1.0 0.0123
O2 O 0.3472 0.0385 0.6488 1.0 0.0119
O3 O 0.4256 0.1486 0.1377 1.0 0.0120




