data_Sodalite_Octahydrate
_cell_length_a         8.848
_cell_length_b         8.848
_cell_length_c         8.848
_cell_angle_alpha     90
_cell_angle_beta      90
_cell_angle_gamma     90


# setting 
_symmetry_space_group_name_H-M 'P-43n'


loop_
_symmetry_equiv_pos_as_xyz
'x,y,z'
'-x+1/2,z+1/2,-y+1/2'
'-x+1/2,-z+1/2,y+1/2'
'-z+1/2,-y+1/2,x+1/2'
'z+1/2,-y+1/2,-x+1/2'
'y+1/2,-x+1/2,-z+1/2'
'-y+1/2,x+1/2,-z+1/2'
'z,x,y'
'y,z,x'
'-y,-z,x'
'z,-x,-y'
'-y,z,-x'
'-z,-x,y'
'-z,x,-y'
'y,-z,-x'
'x,-y,-z'
'-x,y,-z'
'-x,-y,z'
'-y+1/2,-x+1/2,z+1/2'
'y+1/2,x+1/2,z+1/2'
'-z+1/2,y+1/2,-x+1/2'
'z+1/2,y+1/2,x+1/2'
'x+1/2,-z+1/2,-y+1/2'
'x+1/2,z+1/2,y+1/2'


loop_
_atom_site_label
_atom_site_type_symbol
_atom_site_fract_x
_atom_site_fract_y
_atom_site_fract_z
_atom_site_occupancy
_atom_site_U_iso_or_equiv
NA Na 0.1504 0.1504 0.1504 0.75 0.0470
SI1 Si 0.25 0.0 0.5 1.0 0.0100
AL1 Al 0.25 0.5 0.0 1.0 0.0149
O1 O 0.1366 0.4338 0.1490 1.0 0.0190
H2O O2-(H2O) 0.3753 0.3753 0.3753 1.0 0.0390




