data_Stellerite
_cell_length_a         13.599
_cell_length_b         18.222
_cell_length_c         17.863
_cell_angle_alpha     90
_cell_angle_beta      90
_cell_angle_gamma     90


# setting 
_symmetry_space_group_name_H-M 'Fmmm'


loop_
_symmetry_equiv_pos_as_xyz
'x,y,z'
'x,-y,-z'
'-x,y,-z'
'-x,-y,z'
'-x,-y,-z'
'-x,y,z'
'x,-y,z'
'x,y,-z'
'x,y+1/2,z+1/2'
'x,-y+1/2,-z+1/2'
'-x,y+1/2,-z+1/2'
'-x,-y+1/2,z+1/2'
'-x,-y+1/2,-z+1/2'
'-x,y+1/2,z+1/2'
'x,-y+1/2,z+1/2'
'x,y+1/2,-z+1/2'
'x+1/2,y,z+1/2'
'x+1/2,-y,-z+1/2'
'-x+1/2,y,-z+1/2'
'-x+1/2,-y,z+1/2'
'-x+1/2,-y,-z+1/2'
'-x+1/2,y,z+1/2'
'x+1/2,-y,z+1/2'
'x+1/2,y,-z+1/2'
'x+1/2,y+1/2,z'
'x+1/2,-y+1/2,-z'
'-x+1/2,y+1/2,-z'
'-x+1/2,-y+1/2,z'
'-x+1/2,-y+1/2,-z'
'-x+1/2,y+1/2,z'
'x+1/2,-y+1/2,z'
'x+1/2,y+1/2,-z'


loop_
_atom_site_label
_atom_site_type_symbol
_atom_site_fract_x
_atom_site_fract_y
_atom_site_fract_z
_atom_site_occupancy
_atom_site_U_iso_or_equiv
CA1 Ca 0.5 0.0 0.2910 1.0 0.0409
SI1 Si 0.3857 0.3072 0.3769 0.778 0.0099
SI3 Si 0.3013 0.4112 0.5 0.778 0.0108
SI4 Si 0.3883 0.1833 0.5 0.778 0.0105
SI5 Si 0.25 0.25 0.25 0.778 0.0132
AL1 Al 0.3857 0.3072 0.3769 0.222 0.0099
AL3 Al 0.3013 0.4112 0.5 0.222 0.0108
AL4 Al 0.3883 0.1833 0.5 0.222 0.0105
AL5 Al 0.25 0.25 0.25 0.222 0.0132
O1 O 0.3175 0.3046 0.3018 1.0 0.0312
O3 O 0.3721 0.2321 0.4251 1.0 0.0389
O4 O 0.3577 0.3802 0.4239 1.0 0.0363
O7 O 0.5 0.3141 0.3493 1.0 0.0266
O8 O 0.3135 0.1129 0.5 1.0 0.0300
O9 O 0.3100 0.5 0.5 1.0 0.0309
O10 O 0.5 0.1495 0.5 1.0 0.0270
H2O1 O2-(H2O) 0.395 0.098 0.313 0.2 0.0621
H2O2 O2-(H2O) 0.5 0.128 0.303 0.8 0.0988
H2O3 O2-(H2O) 0.459 0.0 0.423 0.37 0.0418
H2O4 O2-(H2O) 0.376 0.0 0.390 0.45 0.1646
H2O5 O2-(H2O) 0.459 0.5 0.339 0.43 0.0570
H2O6 O2-(H2O) 0.368 0.5 0.312 0.62 0.1368
H2O7 O2-(H2O) 0.321 0.056 0.288 0.2 0.1153




