data_IM-6
_cell_length_a        9.848
_cell_length_b        12.470
_cell_length_c        12.603
_cell_angle_alpha    63.47
_cell_angle_beta     74.56
_cell_angle_gamma    76.03


# setting 
_symmetry_space_group_name_H-M 'P-1'


loop_
_symmetry_equiv_pos_as_xyz
'x,y,z'
'-x,-y,-z'


loop_
_atom_site_label
_atom_site_type_symbol
_atom_site_fract_x
_atom_site_fract_y
_atom_site_fract_z
_atom_site_occupancy
_atom_site_U_iso_or_equiv
Ga1 Ga 0.2002 0.88246 0.51811 0.6 0.0239
Ga2 Ga -0.0973 0.59856 0.83766 0.6 0.0233
Ga3 Ga -0.3669 0.8381 0.494 0.6 0.0360
Ga4 Ga -0.6079 0.6602 0.9031 0.6 0.0276
Ga5 Ga -0.5314 0.4647 0.69 0.6 0.0217
Co1 Co 0.2002 0.88246 0.51811 0.4 0.0239
Co2 Co -0.0973 0.59856 0.83766 0.4 0.0233
Co3 Co -0.3669 0.8381 0.494 0.4 0.0360
Co4 Co -0.6079 0.6602 0.9031 0.4 0.0276
Co5 Co -0.5314 0.4647 0.69 0.4 0.0217
P1 P -0.1157 0.8306 0.5996 1 0.0271
P2 P -0.6384 0.8967 0.6851 1 0.0324
P3 P -0.3387 0.4913 0.8294 1 0.0293
P4 P -0.5482 0.6979 0.4512 1 0.0265
P5 P -0.7898 0.4894 0.8831 1 0.0250
O1 O 0.3449 0.8111 0.4332 1 0.0470
O2 O 0.2367 0.8668 0.6602 1 0.0560
O3 O 0.1828 1.0447 0.4144 1 0.0640
O4 O 0.0392 0.8217 0.5362 1 0.0570
O5 O -0.1569 0.5992 0.9893 1 0.0420
O6 O 0.0909 0.5331 0.811 1 0.0431
O7 O -0.1271 0.7579 0.7355 1 0.0480
O8 O -0.1814 0.5035 0.8006 1 0.0360
O9 O -0.1928 0.7768 0.5474 1 0.0450
O10 O -0.3419 0.9707 0.3448 1 0.0540
O11 O -0.5024 0.8579 0.6154 1 0.0811
O12 O -0.4091 0.7194 0.4621 1 0.0510
O13 O -0.6346 0.8278 0.821 1 0.0390
O14 O -0.7436 0.5947 0.8841 1 0.0480
O15 O -0.4216 0.5938 0.863 1 0.0529
O16 O -0.6344 0.63 1.066 1 0.0431
O17 O -0.4692 0.3307 0.6577 1 0.0740
O18 O -0.6684 0.418 0.8276 1 0.0370
O19 O -0.606 0.5942 0.5629 1 0.0390
O20 O -0.3737 0.4928 0.7188 1 0.0529
H2O1 O -0.3851 0.9319 1.0064 0.5 0.5205
N1 N -0.0045 0.4158 0.6219 1 0.2140
C2 C -0.0727 0.4004 0.5392 1 0.1545
C3 C -0.1214 0.5224 0.4469 1 0.1431
C4 C 0.042 0.2921 0.7117 0.5 0.1634
N11 N -0.2357 0.9348 0.9419 0.5 0.3445
C12 C -0.313 0.8888 0.8869 0.5 0.2812
C13 C -0.4663 0.9 0.9468 0.5 0.3154
N14 N -0.5191 1.0331 0.9038 0.5 0.3534
C15 C -0.4399 1.0838 0.953 0.5 0.3293
C16 C -0.286 1.0685 0.8965 0.5 0.3724
C17 C -0.0802 0.9172 0.8914 0.5 0.2242




