data_VPI-5
_cell_length_a         18.9752
_cell_length_b         18.9752
_cell_length_c         8.1044
_cell_angle_alpha     90
_cell_angle_beta      90
_cell_angle_gamma     120


# setting 
_symmetry_space_group_name_H-M 'P63'


loop_
_symmetry_equiv_pos_as_xyz
'x,y,z'
'x-y,x,z+1/2'
'y,-x+y,z+1/2'
'-y,x-y,z'
'-x+y,-x,z'
'-x,-y,z+1/2'


loop_
_atom_site_label
_atom_site_type_symbol
_atom_site_fract_x
_atom_site_fract_y
_atom_site_fract_z
_atom_site_occupancy
_atom_site_U_iso_or_equiv
Al1 Al 0.385 -0.001 0.239 1.0 0.0030
Al2 Al 0.474 -0.173 0.204 1.0 0.0030
Al3 Al 0.654 0.169 0.198 1.0 0.0030
P1 P 0.550 -0.001 0.358 1.0 0.0100
P2 P 0.311 -0.185 0.320 1.0 0.0100
P3 P 0.507 0.185 0.309 1.0 0.0100
O1 O 0.470 0.001 0.339 1.0 0.0190
O2 O 0.431 0.009 0.037 1.0 0.0190
O3 O 0.322 -0.112 0.223 1.0 0.0190
O4 O 0.430 0.111 0.255 1.0 0.0190
O5 O 0.540 -0.074 0.264 1.0 0.0190
O6 O 0.619 0.072 0.278 1.0 0.0190
O7 O 0.512 -0.231 0.280 1.0 0.0190
O8 O 0.378 -0.206 0.280 1.0 0.0190
O9 O 0.474 -0.175 -0.015 1.0 0.0190
O10 O 0.311 -0.168 0.500 1.0 0.0190
O11 O 0.575 0.195 0.198 1.0 0.0190
O12 O 0.739 0.236 0.315 1.0 0.0190
H2O1 O2-(H2O) 0.339 0.005 0.465 1.0 0.0270
H2O2 O2-(H2O) 0.290 0.002 0.160 1.0 0.0270
H2O3 O2-(H2O) 0.314 0.130 -0.028 1.0 0.0900
H2O4 O2-(H2O) 0.248 0.055 -0.288 1.0 0.1270
H2O5 O2-(H2O) 0.193 0.045 -0.566 1.0 0.1270
H2O6 O2-(H2O) 0.319 0.189 -0.539 1.0 0.0900
H2O7 O2-(H2O) 0.100 0.053 0.165 1.0 0.1270




