data_Weinebeneite
_cell_length_a         11.897
_cell_length_b         9.707
_cell_length_c         9.633
_cell_angle_alpha     90
_cell_angle_beta      95.76
_cell_angle_gamma     90


# setting 
# _symmetry_space_group_name_H-M 'C1c1'


loop_
_symmetry_equiv_pos_as_xyz
'x,y,z'
'x,-y,z+1/2'
'x+1/2,y+1/2,z'
'x+1/2,-y+1/2,z+1/2'


loop_
_atom_site_label
_atom_site_type_sumbol
_atom_site_fract_x
_atom_site_fract_y
_atom_site_fract_z
_atom_site_occupancy
_atom_site_U_iso_or_equiv
Ca Ca 0.1124 0.0853 0.3718 1.0 0.0167
Be1 Be -0.3006 0.8817 0.1613 1.0 0.0082
Be2 Be -0.1925 0.3821 0.3460 1.0 0.0099
Be3 Be 0.0014 0.5184 0.2517 1.0 0.0084
P1 P 0.2785 0.0985 0.1409 1.0 0.0068
P2 P -0.2780 0.0992 0.3606 1.0 0.0090
O1 O -0.0939 0.6163 0.1650 1.0 0.0110
O2 O 0.2150 0.7795 0.6971 1.0 0.0123
O3 O 0.2388 0.9725 0.2213 1.0 0.0090
O4 O 0.2431 0.9230 0.4847 1.0 0.0113
O5 O 0.2853 0.7213 0.3029 1.0 0.0129
O6 O 0.2573 0.5836 0.5177 1.0 0.0115
O7 O 0.0943 0.6210 0.3323 1.0 0.0158
O8 O 0.2597 0.4676 0.2905 1.0 0.0125
OH9 O1-(OH) 0.0638 0.4212 0.1442 1.0 0.0137
OH10 O1-(OH) -0.0622 0.4263 0.3603 1.0 0.0132
H2O1 O2-(H2O) -0.5254 0.6453 0.1881 1.0 0.0234
H2O2 O2-(H2O) 0.4918 0.3807 0.3780 1.0 0.0279
H2O3 O2-(H2O) 0.4905 0.3629 0.0437 1.0 0.0265
H2O41 O2-(H2O) 0.2250 0.7474 0.0035 0.55 0.0277
H2O42 O2-(H2O) 0.1950 0.7323 0.0061 0.45 0.0220




