data_Wenkite
_cell_length_a         13.511
_cell_length_b         13.511
_cell_length_c         7.462
_cell_angle_alpha     90
_cell_angle_beta      90
_cell_angle_gamma     120


# setting 
_symmetry_space_group_name_H-M 'P-62m'


loop_
_symmetry_equiv_pos_as_xyz
'x,y,z'
'-x+y,-x,-z'
'-y,x-y,-z'
'-y,x-y,z'
'-x+y,-x,z'
'x-y,-y,-z'
'-x,-x+y,-z'
'y,x,-z'
'x,y,-z'
'y,x,z'
'x-y,-y,z'
'-x,-x+y,z'


loop_
_atom_site_label
_atom_site_type_symbol
_atom_site_fract_x
_atom_site_fract_y
_atom_site_fract_z
_atom_site_occupancy
_atom_site_U_iso_or_equiv
NA Na 0.4988 0.2743 0.0 0.083 0.0306
K1 K 0.0 0.0 0.5 0.125 0.0258
K2 K 0.3932 0.0 0.5 0.125 0.0225
CA Ca 0.4988 0.2743 0.0 0.917 0.0306
BA1 Ba 0.0 0.0 0.5 0.875 0.0258
BA2 Ba 0.3932 0.0 0.5 0.875 0.0225
S S 0.5200 0.5200 0.0 1.0 0.0165
SI1 Si 0.2666 0.1336 0.2178 0.60 0.0101
SI2 Si 0.4380 0.3008 0.5 0.56 0.0051
SI3 Si 0.66667 0.33333 0.3970 0.11 0.0051
AL1 Al 0.2666 0.1336 0.2178 0.40 0.0101
AL2 Al 0.4380 0.3008 0.5 0.44 0.0051
AL3 Al 0.66667 0.33333 0.3970 0.39 0.0051
O1 O 0.296 0.145 0.0 1.0 0.0025
O2 O 0.392 0.215 0.317 1.0 0.0177
O3 O 0.216 0.0 0.294 1.0 0.0101
O4 O 0.170 0.170 0.275 1.0 0.0127
O5 O 0.399 0.399 0.5 1.0 0.0279
O6 O 0.580 0.378 0.5 1.0 0.0165
O7 O 0.66667 0.33333 0.170 0.5 0.0380
OH7 O1-(OH) 0.66667 0.33333 0.170 0.5 0.0380
OH8 O1-(OH) 0.421 0.402 -0.049 0.25 0.0114
OH9 O1-(OH) 0.492 0.606 0.074 0.25 0.0329
OH10 O1-(OH) 0.599 0.553 -0.158 0.25 0.0203
OH11 O1-(OH) 0.591 0.499 0.154 0.25 0.0367




