data_Yugawaralite
_cell_length_a         6.700
_cell_length_b         13.972
_cell_length_c         10.039
_cell_angle_alpha     90
_cell_angle_beta      111.07
_cell_angle_gamma     90


# setting 
# _symmetry_space_group_name_H-M 'P1c1'


loop_
_symmetry_equiv_pos_as_xyz
'x,y,z'
'x,-y,z+1/2'


loop_
_atom_site_label
_atom_site_type_sumbol
_atom_site_fract_x
_atom_site_fract_y
_atom_site_fract_z
_atom_site_occupancy
_atom_site_U_iso_or_equiv
CA1 Ca 0.05134 0.21654 0.42364 1.0 0.0056
SI1 Si 0.34121 0.14798 0.98083 1.0 0.0032
SI2 Si 0.71051 0.03650 0.19124 1.0 0.0033
SI3 Si 0.40911 0.12450 0.69431 1.0 0.0028
SI4 Si 0.02736 0.47598 0.43748 1.0 0.0028
SI5 Si 0.36039 0.37327 0.96046 1.0 0.0030
SI6 Si 0.74211 0.49757 0.62097 1.0 0.0030
AL1 Al 0.0 0.00710 0.0 1.0 0.0027
AL2 Al 0.39614 0.35598 0.65361 1.0 0.0027
O1 O 0.10689 0.1038 0.94844 1.0 0.0068
O2 O 0.85591 0.04834 0.09817 1.0 0.0073
O3 O 0.19153 0.07642 0.59056 1.0 0.0061
O4 O 0.50365 0.10778 0.13425 1.0 0.0052
O5 O 0.43489 0.11736 0.86004 1.0 0.0082
O6 O 0.61915 0.07317 0.67971 1.0 0.0058
O7 O 0.84451 0.06416 0.35574 1.0 0.0056
O8 O 0.33904 0.26252 -0.00394 1.0 0.0081
O9 O 0.39913 0.23277 0.63939 1.0 0.0060
O10 O 0.16380 0.42664 0.98834 1.0 0.0060
O11 O 0.83032 0.48293 0.49303 1.0 0.0062
O12 O 0.17154 0.38236 0.49904 1.0 0.0053
O13 O 0.57911 0.41154 0.08345 1.0 0.0061
O14 O 0.36053 0.39320 0.80583 1.0 0.0068
O15 O 0.62998 0.40026 0.64000 1.0 0.0061
O16 O 0.93634 0.47014 0.26478 1.0 0.0051
O100 O 0.98759 0.24929 0.17041 0.774 0.0123
O101 O 0.04165 0.27602 0.20621 0.182 0.0480
H11 H 0.95821 0.19582 0.10667 0.825 0.0380
H12 H 0.03505 0.30007 0.12817 0.883 0.0450
H13 H 0.05913 0.34986 0.21315 0.157 0.0566
O20 O 0.90310 0.23331 0.61844 1.0 0.0113
H21 H 0.87936 0.18305 0.67456 1.0 0.0412
H22 H 0.81676 0.28638 0.62799 1.0 0.0299
O30 O 0.70811 0.29016 0.32835 0.978 0.0119
H31 H 0.59175 0.27280 0.34773 0.482 0.0380
H32 H 0.65286 0.33338 0.39098 0.417 0.0428
H33 H 0.66062 0.32229 0.23748 1.001 0.0293
O40 O 0.36920 0.15938 0.36919 0.887 0.0156
O41 O 0.33283 0.12668 0.35814 0.128 0.0171
H41 H 0.39007 0.14373 0.28329 0.910 0.0317
H42 H 0.49359 0.13517 0.44553 0.704 0.0365
H43 H 0.45146 0.15376 0.40785 0.314 0.2025
H51 H 0.90889 0.20607 0.91977 0.098 0.0180
H52 H 0.87863 0.31721 0.90312 0.119 0.0621
O50 O 0.81646 0.25961 0.92491 0.119 0.0180




