data_Tetramethylammonium_ZAPO-M1
_cell_length_a         14.226
_cell_length_b         15.117
_cell_length_c         17.557
_cell_angle_alpha     90
_cell_angle_beta      90
_cell_angle_gamma     90


# setting 
_symmetry_space_group_name_H-M 'Pbca'


loop_
_symmetry_equiv_pos_as_xyz
'x,y,z'
'x+1/2,-y+1/2,-z'
'-x,y+1/2,-z+1/2'
'-x+1/2,-y,z+1/2'
'-x,-y,-z'
'-x-1/2,y-1/2,z'
'x,-y-1/2,z-1/2'
'x-1/2,y,-z-1/2'


loop_
_atom_site_label
_atom_site_type_symbol
_atom_site_fract_x
_atom_site_fract_y
_atom_site_fract_z
_atom_site_occupancy
_atom_site_U_iso_or_equiv
AL1 Al 0.0532 0.7242 0.3410 0.639 0.0198
AL2 Al 0.5553 0.9022 0.4377 0.794 0.0198
AL3 Al 0.4234 0.6045 0.4306 0.814 0.0198
AL4 Al 0.2111 0.8403 0.5378 0.877 0.0198
ZN1 Zn 0.0532 0.7242 0.3410 0.361 0.0214
ZN2 Zn 0.5553 0.9022 0.4377 0.206 0.0214
ZN3 Zn 0.4234 0.6045 0.4306 0.186 0.0214
ZN4 Zn 0.2111 0.8403 0.5378 0.123 0.0214
P1 P 0.4499 0.4048 0.4262 1.0 0.0285
P2 P 0.5849 0.1002 0.4250 1.0 0.0285
P3 P 0.5607 0.7292 0.3412 1.0 0.0285
P4 P 0.2147 0.6608 0.4506 1.0 0.0285
O1 O 0.0432 0.0001 0.3975 1.0 0.0438
O2 O -0.5552 -0.0084 0.6006 1.0 0.0438
O3 O 0.0523 -0.1605 0.3570 1.0 0.0438
O4 O -0.0558 0.3285 0.3629 1.0 0.0438
O5 O -0.0494 -0.3296 0.3703 1.0 0.0438
O6 O 0.0279 0.1831 0.3709 1.0 0.0438
O7 O 0.1970 0.1063 0.4270 1.0 0.0438
O8 O -0.3063 0.1053 0.4351 1.0 0.0438
O9 O -0.4573 0.1168 0.5049 1.0 0.0438
O10 O 0.0359 0.1174 0.5247 1.0 0.0438
O11 O 0.3383 0.1058 0.5102 1.0 0.0438
O12 O -0.0722 0.2158 0.2574 1.0 0.0438
O13 O 0.3486 0.1715 0.3817 1.0 0.0438
O14 O 0.2528 0.2463 0.4864 1.0 0.0438
O15 O 0.1399 -0.1002 0.4770 1.0 0.0438
O16 O -0.1496 0.1936 0.3819 1.0 0.0438
N1 N 0.3047 0.9264 0.2574 1.0 0.0559
C1 C 0.2179 0.9808 0.2397 1.333 0.1576
C2 C 0.3954 0.9835 0.2517 1.333 0.1576
C3 C 0.3024 0.8446 0.2023 1.333 0.1576
C4 C 0.3006 0.8984 0.3392 1.333 0.1576




